# generated using pymatgen
data_Li(CoO2)2
_symmetry_space_group_name_H-M   P4_322
_cell_length_a   5.70163761
_cell_length_b   5.70163761
_cell_length_c   8.09621661
_cell_angle_alpha   90.00000000
_cell_angle_beta   90.00000000
_cell_angle_gamma   90.00000000
_symmetry_Int_Tables_number   95
_chemical_formula_structural   Li(CoO2)2
_chemical_formula_sum   'Li4 Co8 O16'
_cell_volume   263.19724602
_cell_formula_units_Z   4
loop_
 _symmetry_equiv_pos_site_id
 _symmetry_equiv_pos_as_xyz
  1  'x, y, z'
  2  '-y, x, z+3/4'
  3  '-x, -y, z+1/2'
  4  'y, -x, z+1/4'
  5  'x, -y, -z+1/2'
  6  '-y, -x, -z+3/4'
  7  '-x, y, -z'
  8  'y, x, -z+1/4'
loop_
 _atom_site_type_symbol
 _atom_site_label
 _atom_site_symmetry_multiplicity
 _atom_site_fract_x
 _atom_site_fract_y
 _atom_site_fract_z
 _atom_site_occupancy
  Li  Li1  4  0.258123  0.500000  0.750000  1
  Co  Co2  4  0.000000  0.255060  0.500000  1
  Co  Co3  4  0.244763  0.244763  0.125000  1
  O  O4  8  0.012426  0.235709  0.734791  1
  O  O5  8  0.233407  0.486490  0.489519  1
