# generated using pymatgen
data_Li(CoO2)2
_symmetry_space_group_name_H-M   P-1
_cell_length_a   4.87794189
_cell_length_b   5.71096243
_cell_length_c   5.74458114
_cell_angle_alpha   60.53231061
_cell_angle_beta   89.41490941
_cell_angle_gamma   89.20959292
_symmetry_Int_Tables_number   2
_chemical_formula_structural   Li(CoO2)2
_chemical_formula_sum   'Li2 Co4 O8'
_cell_volume   139.31402927
_cell_formula_units_Z   2
loop_
 _symmetry_equiv_pos_site_id
 _symmetry_equiv_pos_as_xyz
  1  'x, y, z'
  2  '-x, -y, -z'
loop_
 _atom_site_type_symbol
 _atom_site_label
 _atom_site_symmetry_multiplicity
 _atom_site_fract_x
 _atom_site_fract_y
 _atom_site_fract_z
 _atom_site_occupancy
  Li  Li1  2  0.251660  0.345017  0.001152  1
  Co  Co2  2  0.247559  0.657176  0.466471  1
  Co  Co3  2  0.249055  0.115178  0.515473  1
  O  O4  2  0.066252  0.458699  0.305915  1
  O  O5  2  0.088573  0.000075  0.286030  1
  O  O6  2  0.412802  0.274064  0.701258  1
  O  O7  2  0.426699  0.772311  0.700713  1
