# generated using pymatgen
data_Li(CoO2)2
_symmetry_space_group_name_H-M   C2/m
_cell_length_a   19.67545431
_cell_length_b   2.95527359
_cell_length_c   4.93941201
_cell_angle_alpha   90.00000000
_cell_angle_beta   93.95294632
_cell_angle_gamma   90.00000000
_symmetry_Int_Tables_number   12
_chemical_formula_structural   Li(CoO2)2
_chemical_formula_sum   'Li4 Co8 O16'
_cell_volume   286.52551227
_cell_formula_units_Z   4
loop_
 _symmetry_equiv_pos_site_id
 _symmetry_equiv_pos_as_xyz
  1  'x, y, z'
  2  '-x, -y, -z'
  3  '-x, y, -z'
  4  'x, -y, z'
  5  'x+1/2, y+1/2, z'
  6  '-x+1/2, -y+1/2, -z'
  7  '-x+1/2, y+1/2, -z'
  8  'x+1/2, -y+1/2, z'
loop_
 _atom_site_type_symbol
 _atom_site_label
 _atom_site_symmetry_multiplicity
 _atom_site_fract_x
 _atom_site_fract_y
 _atom_site_fract_z
 _atom_site_occupancy
  Li  Li1  4  0.124535  0.000000  0.201576  1
  Co  Co2  4  0.238767  0.500000  0.745316  1
  Co  Co3  2  0.000000  0.000000  0.500000  1
  Co  Co4  2  0.000000  0.500000  0.000000  1
  O  O5  4  0.049437  0.000000  0.861182  1
  O  O6  4  0.052659  0.500000  0.326010  1
  O  O7  4  0.195719  0.000000  0.532438  1
  O  O8  4  0.197008  0.500000  0.064448  1
