# generated using pymatgen
data_Li(CoO2)2
_symmetry_space_group_name_H-M   Pmmn
_cell_length_a   5.62396092
_cell_length_b   10.10389631
_cell_length_c   4.86000537
_cell_angle_alpha   90.00000000
_cell_angle_beta   90.00000000
_cell_angle_gamma   90.00000000
_symmetry_Int_Tables_number   59
_chemical_formula_structural   Li(CoO2)2
_chemical_formula_sum   'Li4 Co8 O16'
_cell_volume   276.16454665
_cell_formula_units_Z   4
loop_
 _symmetry_equiv_pos_site_id
 _symmetry_equiv_pos_as_xyz
  1  'x, y, z'
  2  '-x, -y, z'
  3  'x+1/2, -y+1/2, -z'
  4  '-x+1/2, y+1/2, -z'
  5  '-x+1/2, -y+1/2, -z'
  6  'x+1/2, y+1/2, -z'
  7  '-x, y, z'
  8  'x, -y, z'
loop_
 _atom_site_type_symbol
 _atom_site_label
 _atom_site_symmetry_multiplicity
 _atom_site_fract_x
 _atom_site_fract_y
 _atom_site_fract_z
 _atom_site_occupancy
  Li  Li1  2  0.000000  0.000000  0.143295  1
  Li  Li2  2  0.000000  0.500000  0.479711  1
  Co  Co3  4  0.000000  0.244941  0.503918  1
  Co  Co4  4  0.250000  0.250000  0.000000  1
  O  O5  8  0.248479  0.350280  0.670366  1
  O  O6  4  0.000000  0.150470  0.846085  1
  O  O7  4  0.000000  0.344985  0.174064  1
