# generated using pymatgen
data_Li(CoO2)4
_symmetry_space_group_name_H-M   C2/m
_cell_length_a   10.00996697
_cell_length_b   5.74708615
_cell_length_c   5.29232828
_cell_angle_alpha   90.00000000
_cell_angle_beta   108.22335279
_cell_angle_gamma   90.00000000
_symmetry_Int_Tables_number   12
_chemical_formula_structural   Li(CoO2)4
_chemical_formula_sum   'Li2 Co8 O16'
_cell_volume   289.18763323
_cell_formula_units_Z   2
loop_
 _symmetry_equiv_pos_site_id
 _symmetry_equiv_pos_as_xyz
  1  'x, y, z'
  2  '-x, -y, -z'
  3  '-x, y, -z'
  4  'x, -y, z'
  5  'x+1/2, y+1/2, z'
  6  '-x+1/2, -y+1/2, -z'
  7  '-x+1/2, y+1/2, -z'
  8  'x+1/2, -y+1/2, z'
loop_
 _atom_site_type_symbol
 _atom_site_label
 _atom_site_symmetry_multiplicity
 _atom_site_fract_x
 _atom_site_fract_y
 _atom_site_fract_z
 _atom_site_occupancy
  Li  Li1  2  0.000000  0.500000  0.500000  1
  Co  Co2  4  0.000000  0.249495  0.000000  1
  Co  Co3  4  0.246276  0.000000  0.982565  1
  O  O4  8  0.125426  0.261706  0.802698  1
  O  O5  4  0.107549  0.500000  0.203642  1
  O  O6  4  0.110611  0.000000  0.186223  1
