# generated using pymatgen
data_Li2(CoO2)3
_symmetry_space_group_name_H-M   C2/m
_cell_length_a   4.88765592
_cell_length_b   8.45191543
_cell_length_c   5.05179584
_cell_angle_alpha   90.00000000
_cell_angle_beta   108.87100276
_cell_angle_gamma   90.00000000
_symmetry_Int_Tables_number   12
_chemical_formula_structural   Li2(CoO2)3
_chemical_formula_sum   'Li4 Co6 O12'
_cell_volume   197.47270308
_cell_formula_units_Z   2
loop_
 _symmetry_equiv_pos_site_id
 _symmetry_equiv_pos_as_xyz
  1  'x, y, z'
  2  '-x, -y, -z'
  3  '-x, y, -z'
  4  'x, -y, z'
  5  'x+1/2, y+1/2, z'
  6  '-x+1/2, -y+1/2, -z'
  7  '-x+1/2, y+1/2, -z'
  8  'x+1/2, -y+1/2, z'
loop_
 _atom_site_type_symbol
 _atom_site_label
 _atom_site_symmetry_multiplicity
 _atom_site_fract_x
 _atom_site_fract_y
 _atom_site_fract_z
 _atom_site_occupancy
  Li  Li1  4  0.000000  0.334032  0.000000  1
  Co  Co2  4  0.000000  0.164879  0.500000  1
  Co  Co3  2  0.000000  0.500000  0.500000  1
  O  O4  8  0.232831  0.329895  0.705755  1
  O  O5  4  0.242188  0.000000  0.709336  1
