# generated using pymatgen
data_Li2(CoO2)3
_symmetry_space_group_name_H-M   Cc
_cell_length_a   8.44639174
_cell_length_b   4.87797241
_cell_length_c   10.12380364
_cell_angle_alpha   90.00000000
_cell_angle_beta   106.32051230
_cell_angle_gamma   90.00000000
_symmetry_Int_Tables_number   9
_chemical_formula_structural   Li2(CoO2)3
_chemical_formula_sum   'Li8 Co12 O24'
_cell_volume   400.30583163
_cell_formula_units_Z   4
loop_
 _symmetry_equiv_pos_site_id
 _symmetry_equiv_pos_as_xyz
  1  'x, y, z'
  2  'x, -y, z+1/2'
  3  'x+1/2, y+1/2, z'
  4  'x+1/2, -y+1/2, z+1/2'
loop_
 _atom_site_type_symbol
 _atom_site_label
 _atom_site_symmetry_multiplicity
 _atom_site_fract_x
 _atom_site_fract_y
 _atom_site_fract_z
 _atom_site_occupancy
  Li  Li1  4  0.003046  0.083774  0.256497  1
  Li  Li2  4  0.168592  0.415559  0.756609  1
  Co  Co3  4  0.081850  0.417047  0.497984  1
  Co  Co4  4  0.252932  0.082553  0.006357  1
  Co  Co5  4  0.415810  0.415231  0.498012  1
  O  O6  4  0.056360  0.242541  0.897294  1
  O  O7  4  0.115609  0.085769  0.603144  1
  O  O8  4  0.212422  0.244103  0.397152  1
  O  O9  4  0.284820  0.421560  0.103515  1
  O  O10  4  0.377595  0.251685  0.897101  1
  O  O11  4  0.454023  0.085341  0.604754  1
