# generated using pymatgen
data_Li2(CoO2)3
_symmetry_space_group_name_H-M   Cmce
_cell_length_a   8.79275529
_cell_length_b   5.15970145
_cell_length_c   10.20613600
_cell_angle_alpha   90.00000000
_cell_angle_beta   90.00000000
_cell_angle_gamma   90.00000000
_symmetry_Int_Tables_number   64
_chemical_formula_structural   Li2(CoO2)3
_chemical_formula_sum   'Li8 Co12 O24'
_cell_volume   463.03189821
_cell_formula_units_Z   4
loop_
 _symmetry_equiv_pos_site_id
 _symmetry_equiv_pos_as_xyz
  1  'x, y, z'
  2  '-x, -y, -z'
  3  '-x+1/2, -y, z+1/2'
  4  'x+1/2, y, -z+1/2'
  5  'x, -y, -z'
  6  '-x, y, z'
  7  '-x+1/2, y, -z+1/2'
  8  'x+1/2, -y, z+1/2'
  9  'x+1/2, y+1/2, z'
  10  '-x+1/2, -y+1/2, -z'
  11  '-x, -y+1/2, z+1/2'
  12  'x, y+1/2, -z+1/2'
  13  'x+1/2, -y+1/2, -z'
  14  '-x+1/2, y+1/2, z'
  15  '-x, y+1/2, -z+1/2'
  16  'x, -y+1/2, z+1/2'
loop_
 _atom_site_type_symbol
 _atom_site_label
 _atom_site_symmetry_multiplicity
 _atom_site_fract_x
 _atom_site_fract_y
 _atom_site_fract_z
 _atom_site_occupancy
  Li  Li1  8  0.250000  0.096315  0.250000  1
  Co  Co2  8  0.167564  0.500000  0.000000  1
  Co  Co3  4  0.000000  0.000000  0.000000  1
  O  O4  16  0.178643  0.152723  0.890865  1
  O  O5  8  0.000000  0.167671  0.591633  1
