# generated using pymatgen
data_Li2CoO3
_symmetry_space_group_name_H-M   P-1
_cell_length_a   2.97889922
_cell_length_b   5.06672089
_cell_length_c   7.46761117
_cell_angle_alpha   75.75157279
_cell_angle_beta   81.14577491
_cell_angle_gamma   75.79997109
_symmetry_Int_Tables_number   2
_chemical_formula_structural   Li2CoO3
_chemical_formula_sum   'Li4 Co2 O6'
_cell_volume   105.37925377
_cell_formula_units_Z   2
loop_
 _symmetry_equiv_pos_site_id
 _symmetry_equiv_pos_as_xyz
  1  'x, y, z'
  2  '-x, -y, -z'
loop_
 _atom_site_type_symbol
 _atom_site_label
 _atom_site_symmetry_multiplicity
 _atom_site_fract_x
 _atom_site_fract_y
 _atom_site_fract_z
 _atom_site_occupancy
  Li  Li1  2  0.167265  0.510386  0.665145  1
  Li  Li2  1  0.500000  0.000000  0.500000  1
  Li  Li3  1  0.500000  0.500000  0.000000  1
  Co  Co4  2  0.155951  0.001387  0.177088  1
  O  O5  2  0.153948  0.216823  0.930417  1
  O  O6  2  0.174047  0.763442  0.389666  1
  O  O7  2  0.485072  0.230739  0.242202  1
