# generated using pymatgen
data_Li2CoO3
_symmetry_space_group_name_H-M   C2/m
_cell_length_a   4.89828927
_cell_length_b   8.93748699
_cell_length_c   5.00800196
_cell_angle_alpha   90.00000000
_cell_angle_beta   106.71410772
_cell_angle_gamma   90.00000000
_symmetry_Int_Tables_number   12
_chemical_formula_structural   Li2CoO3
_chemical_formula_sum   'Li8 Co4 O12'
_cell_volume   209.97968411
_cell_formula_units_Z   4
loop_
 _symmetry_equiv_pos_site_id
 _symmetry_equiv_pos_as_xyz
  1  'x, y, z'
  2  '-x, -y, -z'
  3  '-x, y, -z'
  4  'x, -y, z'
  5  'x+1/2, y+1/2, z'
  6  '-x+1/2, -y+1/2, -z'
  7  '-x+1/2, y+1/2, -z'
  8  'x+1/2, -y+1/2, z'
loop_
 _atom_site_type_symbol
 _atom_site_label
 _atom_site_symmetry_multiplicity
 _atom_site_fract_x
 _atom_site_fract_y
 _atom_site_fract_z
 _atom_site_occupancy
  Li  Li1  4  0.000000  0.340614  0.500000  1
  Li  Li2  2  0.000000  0.000000  0.500000  1
  Li  Li3  2  0.000000  0.500000  0.000000  1
  Co  Co4  4  0.000000  0.159166  0.000000  1
  O  O5  8  0.226160  0.173873  0.775024  1
  O  O6  4  0.231606  0.000000  0.233660  1
