# generated using pymatgen
data_Li2CoO3
_symmetry_space_group_name_H-M   Pnnm
_cell_length_a   8.20410637
_cell_length_b   9.69694829
_cell_length_c   3.29048104
_cell_angle_alpha   90.00000000
_cell_angle_beta   90.00000000
_cell_angle_gamma   90.00000000
_symmetry_Int_Tables_number   58
_chemical_formula_structural   Li2CoO3
_chemical_formula_sum   'Li8 Co4 O12'
_cell_volume   261.77354536
_cell_formula_units_Z   4
loop_
 _symmetry_equiv_pos_site_id
 _symmetry_equiv_pos_as_xyz
  1  'x, y, z'
  2  '-x, -y, -z'
  3  '-x, -y, z'
  4  'x, y, -z'
  5  'x+1/2, -y+1/2, -z+1/2'
  6  '-x+1/2, y+1/2, z+1/2'
  7  '-x+1/2, y+1/2, -z+1/2'
  8  'x+1/2, -y+1/2, z+1/2'
loop_
 _atom_site_type_symbol
 _atom_site_label
 _atom_site_symmetry_multiplicity
 _atom_site_fract_x
 _atom_site_fract_y
 _atom_site_fract_z
 _atom_site_occupancy
  Li  Li1  4  0.092241  0.889969  0.500000  1
  Li  Li2  4  0.144370  0.295828  0.500000  1
  Co  Co3  4  0.132160  0.598641  0.000000  1
  O  O4  4  0.098276  0.409472  0.000000  1
  O  O5  4  0.117926  0.776889  0.000000  1
  O  O6  4  0.159169  0.085204  0.500000  1
