# generated using pymatgen
data_Li2CoO3
_symmetry_space_group_name_H-M   P-1
_cell_length_a   2.97827823
_cell_length_b   5.00069231
_cell_length_c   7.47610914
_cell_angle_alpha   73.41917651
_cell_angle_beta   81.04649828
_cell_angle_gamma   88.61961628
_symmetry_Int_Tables_number   2
_chemical_formula_structural   Li2CoO3
_chemical_formula_sum   'Li4 Co2 O6'
_cell_volume   105.39052767
_cell_formula_units_Z   2
loop_
 _symmetry_equiv_pos_site_id
 _symmetry_equiv_pos_as_xyz
  1  'x, y, z'
  2  '-x, -y, -z'
loop_
 _atom_site_type_symbol
 _atom_site_label
 _atom_site_symmetry_multiplicity
 _atom_site_fract_x
 _atom_site_fract_y
 _atom_site_fract_z
 _atom_site_occupancy
  Li  Li1  2  0.336729  0.502083  0.834458  1
  Li  Li2  1  0.000000  0.500000  0.500000  1
  Li  Li3  1  0.500000  0.000000  0.500000  1
  Co  Co4  2  0.155960  0.994218  0.178569  1
  O  O5  2  0.095576  0.230312  0.311345  1
  O  O6  2  0.226071  0.783065  0.001787  1
  O  O7  2  0.439041  0.236146  0.679001  1
