# generated using pymatgen
data_Li2CoO3
_symmetry_space_group_name_H-M   C2
_cell_length_a   4.96318005
_cell_length_b   8.82250275
_cell_length_c   5.03272197
_cell_angle_alpha   90.00000000
_cell_angle_beta   108.24500575
_cell_angle_gamma   90.00000000
_symmetry_Int_Tables_number   5
_chemical_formula_structural   Li2CoO3
_chemical_formula_sum   'Li8 Co4 O12'
_cell_volume   209.29231949
_cell_formula_units_Z   4
loop_
 _symmetry_equiv_pos_site_id
 _symmetry_equiv_pos_as_xyz
  1  'x, y, z'
  2  '-x, y, -z'
  3  'x+1/2, y+1/2, z'
  4  '-x+1/2, y+1/2, -z'
loop_
 _atom_site_type_symbol
 _atom_site_label
 _atom_site_symmetry_multiplicity
 _atom_site_fract_x
 _atom_site_fract_y
 _atom_site_fract_z
 _atom_site_occupancy
  Li  Li1  2  0.000000  0.160365  0.500000  1
  Li  Li2  2  0.000000  0.503716  0.500000  1
  Li  Li3  2  0.000000  0.665761  0.000000  1
  Li  Li4  2  0.000000  0.830407  0.500000  1
  Co  Co5  2  0.000000  0.002420  0.000000  1
  Co  Co6  2  0.000000  0.327344  0.000000  1
  O  O7  4  0.220740  0.157601  0.232952  1
  O  O8  4  0.225322  0.993517  0.775228  1
  O  O9  4  0.249711  0.847380  0.226662  1
