# generated using pymatgen
data_Li2CoO3
_symmetry_space_group_name_H-M   P-1
_cell_length_a   2.97767094
_cell_length_b   5.95060286
_cell_length_c   6.30215300
_cell_angle_alpha   103.57361962
_cell_angle_beta   103.42683232
_cell_angle_gamma   93.65294084
_symmetry_Int_Tables_number   2
_chemical_formula_structural   Li2CoO3
_chemical_formula_sum   'Li4 Co2 O6'
_cell_volume   104.75314415
_cell_formula_units_Z   2
loop_
 _symmetry_equiv_pos_site_id
 _symmetry_equiv_pos_as_xyz
  1  'x, y, z'
  2  '-x, -y, -z'
loop_
 _atom_site_type_symbol
 _atom_site_label
 _atom_site_symmetry_multiplicity
 _atom_site_fract_x
 _atom_site_fract_y
 _atom_site_fract_z
 _atom_site_occupancy
  Li  Li1  2  0.335077  0.662405  0.171843  1
  Li  Li2  1  0.000000  0.000000  0.500000  1
  Li  Li3  1  0.000000  0.500000  0.500000  1
  Co  Co4  2  0.335190  0.179587  0.176354  1
  O  O5  2  0.154431  0.075169  0.855815  1
  O  O6  2  0.192012  0.603456  0.835264  1
  O  O7  2  0.486027  0.236221  0.469794  1
