# generated using pymatgen
data_Li2MnO3
_symmetry_space_group_name_H-M   C2/m
_cell_length_a   5.01608197
_cell_length_b   8.66397918
_cell_length_c   5.10579080
_cell_angle_alpha   90.00000000
_cell_angle_beta   109.59556570
_cell_angle_gamma   90.00000000
_symmetry_Int_Tables_number   12
_chemical_formula_structural   Li2MnO3
_chemical_formula_sum   'Li8 Mn4 O12'
_cell_volume   209.04240735
_cell_formula_units_Z   4
loop_
 _symmetry_equiv_pos_site_id
 _symmetry_equiv_pos_as_xyz
  1  'x, y, z'
  2  '-x, -y, -z'
  3  '-x, y, -z'
  4  'x, -y, z'
  5  'x+1/2, y+1/2, z'
  6  '-x+1/2, -y+1/2, -z'
  7  '-x+1/2, y+1/2, -z'
  8  'x+1/2, -y+1/2, z'
loop_
 _atom_site_type_symbol
 _atom_site_label
 _atom_site_symmetry_multiplicity
 _atom_site_fract_x
 _atom_site_fract_y
 _atom_site_fract_z
 _atom_site_occupancy
  Li  Li1  4  0.000000  0.338706  0.500000  1
  Li  Li2  2  0.000000  0.000000  0.500000  1
  Li  Li3  2  0.000000  0.500000  0.000000  1
  Mn  Mn4  4  0.000000  0.167065  0.000000  1
  O  O5  8  0.245113  0.178658  0.776528  1
  O  O6  4  0.219180  0.000000  0.227492  1
