# generated using pymatgen
data_Li2MnO2
_symmetry_space_group_name_H-M   P-3m1
_cell_length_a   3.22602751
_cell_length_b   3.22602751
_cell_length_c   5.33402641
_cell_angle_alpha   90.00000000
_cell_angle_beta   90.00000000
_cell_angle_gamma   120.00000000
_symmetry_Int_Tables_number   164
_chemical_formula_structural   Li2MnO2
_chemical_formula_sum   'Li2 Mn1 O2'
_cell_volume   48.07529152
_cell_formula_units_Z   1
loop_
 _symmetry_equiv_pos_site_id
 _symmetry_equiv_pos_as_xyz
  1  'x, y, z'
  2  '-x, -y, -z'
  3  '-y, x-y, z'
  4  'y, -x+y, -z'
  5  '-x+y, -x, z'
  6  'x-y, x, -z'
  7  'y, x, -z'
  8  '-y, -x, z'
  9  'x-y, -y, -z'
  10  '-x+y, y, z'
  11  '-x, -x+y, -z'
  12  'x, x-y, z'
loop_
 _atom_site_type_symbol
 _atom_site_label
 _atom_site_symmetry_multiplicity
 _atom_site_fract_x
 _atom_site_fract_y
 _atom_site_fract_z
 _atom_site_occupancy
  Li  Li1  2  0.333333  0.666667  0.631715  1
  Mn  Mn2  1  0.000000  0.000000  0.000000  1
  O  O3  2  0.333333  0.666667  0.246202  1
