# generated using pymatgen
data_Li3(CoO2)4
_symmetry_space_group_name_H-M   C2/m
_cell_length_a   10.16092189
_cell_length_b   5.88593449
_cell_length_c   5.20659475
_cell_angle_alpha   90.00000000
_cell_angle_beta   109.41041937
_cell_angle_gamma   90.00000000
_symmetry_Int_Tables_number   12
_chemical_formula_structural   Li3(CoO2)4
_chemical_formula_sum   'Li6 Co8 O16'
_cell_volume   293.68970082
_cell_formula_units_Z   2
loop_
 _symmetry_equiv_pos_site_id
 _symmetry_equiv_pos_as_xyz
  1  'x, y, z'
  2  '-x, -y, -z'
  3  '-x, y, -z'
  4  'x, -y, z'
  5  'x+1/2, y+1/2, z'
  6  '-x+1/2, -y+1/2, -z'
  7  '-x+1/2, y+1/2, -z'
  8  'x+1/2, -y+1/2, z'
loop_
 _atom_site_type_symbol
 _atom_site_label
 _atom_site_symmetry_multiplicity
 _atom_site_fract_x
 _atom_site_fract_y
 _atom_site_fract_z
 _atom_site_occupancy
  Li  Li1  4  0.250000  0.250000  0.500000  1
  Li  Li2  2  0.000000  0.500000  0.500000  1
  Co  Co3  4  0.000000  0.247380  0.000000  1
  Co  Co4  4  0.244227  0.000000  0.979254  1
  O  O5  8  0.133331  0.261612  0.787245  1
  O  O6  4  0.123090  0.500000  0.234840  1
  O  O7  4  0.125459  0.000000  0.213515  1
