# generated using pymatgen
data_Li3(CoO2)4
_symmetry_space_group_name_H-M   C2/m
_cell_length_a   7.94898775
_cell_length_b   8.36288896
_cell_length_c   5.69387047
_cell_angle_alpha   90.00000000
_cell_angle_beta   132.91257708
_cell_angle_gamma   90.00000000
_symmetry_Int_Tables_number   12
_chemical_formula_structural   Li3(CoO2)4
_chemical_formula_sum   'Li6 Co8 O16'
_cell_volume   277.21721481
_cell_formula_units_Z   2
loop_
 _symmetry_equiv_pos_site_id
 _symmetry_equiv_pos_as_xyz
  1  'x, y, z'
  2  '-x, -y, -z'
  3  '-x, y, -z'
  4  'x, -y, z'
  5  'x+1/2, y+1/2, z'
  6  '-x+1/2, -y+1/2, -z'
  7  '-x+1/2, y+1/2, -z'
  8  'x+1/2, -y+1/2, z'
loop_
 _atom_site_type_symbol
 _atom_site_label
 _atom_site_symmetry_multiplicity
 _atom_site_fract_x
 _atom_site_fract_y
 _atom_site_fract_z
 _atom_site_occupancy
  Li  Li1  4  0.250000  0.250000  0.500000  1
  Li  Li2  2  0.000000  0.500000  0.500000  1
  Co  Co3  4  0.250000  0.250000  0.000000  1
  Co  Co4  2  0.000000  0.000000  0.000000  1
  Co  Co5  2  0.000000  0.000000  0.500000  1
  O  O6  4  0.000000  0.222918  0.000000  1
  O  O7  4  0.000000  0.224923  0.500000  1
  O  O8  4  0.211259  0.000000  0.448291  1
  O  O9  4  0.225015  0.000000  0.967520  1
