# generated using pymatgen
data_Li3Co2O5
_symmetry_space_group_name_H-M   P-1
_cell_length_a   4.95142684
_cell_length_b   5.02580844
_cell_length_c   7.56259140
_cell_angle_alpha   71.79910813
_cell_angle_beta   72.19121537
_cell_angle_gamma   79.81802402
_symmetry_Int_Tables_number   2
_chemical_formula_structural   Li3Co2O5
_chemical_formula_sum   'Li6 Co4 O10'
_cell_volume   169.52384751
_cell_formula_units_Z   2
loop_
 _symmetry_equiv_pos_site_id
 _symmetry_equiv_pos_as_xyz
  1  'x, y, z'
  2  '-x, -y, -z'
loop_
 _atom_site_type_symbol
 _atom_site_label
 _atom_site_symmetry_multiplicity
 _atom_site_fract_x
 _atom_site_fract_y
 _atom_site_fract_z
 _atom_site_occupancy
  Li  Li1  2  0.210934  0.500907  0.596789  1
  Li  Li2  2  0.397525  0.493044  0.205123  1
  Li  Li3  1  0.000000  0.500000  0.000000  1
  Li  Li4  1  0.500000  0.000000  0.500000  1
  Co  Co5  2  0.099375  0.998414  0.305821  1
  Co  Co6  2  0.304931  0.002396  0.890667  1
  O  O7  2  0.035815  0.781055  0.157872  1
  O  O8  2  0.127333  0.216990  0.454676  1
  O  O9  2  0.228287  0.774638  0.758334  1
  O  O10  2  0.347088  0.214417  0.066642  1
  O  O11  2  0.426752  0.764116  0.340302  1
