# generated using pymatgen
data_Li3CoO3
_symmetry_space_group_name_H-M   P-1
_cell_length_a   5.21665384
_cell_length_b   5.48352861
_cell_length_c   5.58476986
_cell_angle_alpha   117.96175578
_cell_angle_beta   90.01179503
_cell_angle_gamma   90.96712527
_symmetry_Int_Tables_number   2
_chemical_formula_structural   Li3CoO3
_chemical_formula_sum   'Li6 Co2 O6'
_cell_volume   141.08021770
_cell_formula_units_Z   2
loop_
 _symmetry_equiv_pos_site_id
 _symmetry_equiv_pos_as_xyz
  1  'x, y, z'
  2  '-x, -y, -z'
loop_
 _atom_site_type_symbol
 _atom_site_label
 _atom_site_symmetry_multiplicity
 _atom_site_fract_x
 _atom_site_fract_y
 _atom_site_fract_z
 _atom_site_occupancy
  Li  Li1  2  0.085598  0.526224  0.798266  1
  Li  Li2  2  0.127857  0.006771  0.208701  1
  Li  Li3  2  0.445269  0.265083  0.009264  1
  Co  Co4  2  0.349519  0.711960  0.499331  1
  O  O5  2  0.235319  0.932608  0.834859  1
  O  O6  2  0.250387  0.640972  0.159437  1
  O  O7  2  0.289677  0.344469  0.474491  1
