# generated using pymatgen
data_Li3Co2O5
_symmetry_space_group_name_H-M   P-1
_cell_length_a   2.93711433
_cell_length_b   5.92957469
_cell_length_c   10.42214355
_cell_angle_alpha   97.16256394
_cell_angle_beta   97.04897747
_cell_angle_gamma   93.13325050
_symmetry_Int_Tables_number   2
_chemical_formula_structural   Li3Co2O5
_chemical_formula_sum   'Li6 Co4 O10'
_cell_volume   178.28105692
_cell_formula_units_Z   2
loop_
 _symmetry_equiv_pos_site_id
 _symmetry_equiv_pos_as_xyz
  1  'x, y, z'
  2  '-x, -y, -z'
loop_
 _atom_site_type_symbol
 _atom_site_label
 _atom_site_symmetry_multiplicity
 _atom_site_fract_x
 _atom_site_fract_y
 _atom_site_fract_z
 _atom_site_occupancy
  Li  Li1  2  0.095674  0.791771  0.193055  1
  Li  Li2  2  0.303078  0.402180  0.603998  1
  Li  Li3  1  0.500000  0.000000  0.000000  1
  Li  Li4  1  0.500000  0.500000  0.000000  1
  Co  Co5  2  0.094018  0.304193  0.188310  1
  Co  Co6  2  0.307186  0.902715  0.604167  1
  O  O7  2  0.009672  0.253007  0.017723  1
  O  O8  2  0.182159  0.331442  0.385926  1
  O  O9  2  0.209762  0.865978  0.403506  1
  O  O10  2  0.375274  0.931968  0.798578  1
  O  O11  2  0.429802  0.469613  0.799656  1
