# generated using pymatgen
data_Li3Co2O5
_symmetry_space_group_name_H-M   P-1
_cell_length_a   5.02675651
_cell_length_b   5.81428182
_cell_length_c   6.53508343
_cell_angle_alpha   103.59336599
_cell_angle_beta   97.58286850
_cell_angle_gamma   107.32697528
_symmetry_Int_Tables_number   2
_chemical_formula_structural   Li3Co2O5
_chemical_formula_sum   'Li6 Co4 O10'
_cell_volume   172.97694060
_cell_formula_units_Z   2
loop_
 _symmetry_equiv_pos_site_id
 _symmetry_equiv_pos_as_xyz
  1  'x, y, z'
  2  '-x, -y, -z'
loop_
 _atom_site_type_symbol
 _atom_site_label
 _atom_site_symmetry_multiplicity
 _atom_site_fract_x
 _atom_site_fract_y
 _atom_site_fract_z
 _atom_site_occupancy
  Li  Li1  2  0.107633  0.701908  0.194098  1
  Li  Li2  2  0.299567  0.097810  0.602567  1
  Li  Li3  1  0.500000  0.000000  0.000000  1
  Li  Li4  1  0.500000  0.500000  0.000000  1
  Co  Co5  2  0.094055  0.195302  0.194841  1
  Co  Co6  2  0.303431  0.607954  0.605682  1
  O  O7  2  0.010867  0.256353  0.479785  1
  O  O8  2  0.169032  0.128703  0.907812  1
  O  O9  2  0.174699  0.657339  0.880831  1
  O  O10  2  0.382031  0.524228  0.295587  1
  O  O11  2  0.390279  0.074975  0.299873  1
