# generated using pymatgen
data_Li3Co2O5
_symmetry_space_group_name_H-M   P-1
_cell_length_a   5.04625016
_cell_length_b   5.10061028
_cell_length_c   7.68498391
_cell_angle_alpha   82.66033273
_cell_angle_beta   72.95010861
_cell_angle_gamma   71.17761345
_symmetry_Int_Tables_number   2
_chemical_formula_structural   Li3Co2O5
_chemical_formula_sum   'Li6 Co4 O10'
_cell_volume   178.87680865
_cell_formula_units_Z   2
loop_
 _symmetry_equiv_pos_site_id
 _symmetry_equiv_pos_as_xyz
  1  'x, y, z'
  2  '-x, -y, -z'
loop_
 _atom_site_type_symbol
 _atom_site_label
 _atom_site_symmetry_multiplicity
 _atom_site_fract_x
 _atom_site_fract_y
 _atom_site_fract_z
 _atom_site_occupancy
  Li  Li1  2  0.201566  0.498951  0.100789  1
  Li  Li2  2  0.403848  0.500128  0.696545  1
  Li  Li3  1  0.000000  0.500000  0.500000  1
  Li  Li4  1  0.500000  0.000000  0.500000  1
  Co  Co5  2  0.103010  0.002175  0.304320  1
  Co  Co6  2  0.305088  0.001808  0.895366  1
  O  O7  2  0.039388  0.773370  0.889616  1
  O  O8  2  0.135917  0.221682  0.711449  1
  O  O9  2  0.228448  0.767495  0.490587  1
  O  O10  2  0.339644  0.220891  0.293496  1
  O  O11  2  0.442356  0.764979  0.095998  1
