# generated using pymatgen
data_Li3CoO3
_symmetry_space_group_name_H-M   P4_2/mnm
_cell_length_a   8.73879684
_cell_length_b   8.73879684
_cell_length_c   3.62356577
_cell_angle_alpha   90.00000000
_cell_angle_beta   90.00000000
_cell_angle_gamma   90.00000000
_symmetry_Int_Tables_number   136
_chemical_formula_structural   Li3CoO3
_chemical_formula_sum   'Li12 Co4 O12'
_cell_volume   276.71928979
_cell_formula_units_Z   4
loop_
 _symmetry_equiv_pos_site_id
 _symmetry_equiv_pos_as_xyz
  1  'x, y, z'
  2  '-x, -y, -z'
  3  '-y+1/2, x+1/2, z+1/2'
  4  'y+1/2, -x+1/2, -z+1/2'
  5  '-x, -y, z'
  6  'x, y, -z'
  7  'y+1/2, -x+1/2, z+1/2'
  8  '-y+1/2, x+1/2, -z+1/2'
  9  'x+1/2, -y+1/2, -z+1/2'
  10  '-x+1/2, y+1/2, z+1/2'
  11  '-y, -x, -z'
  12  'y, x, z'
  13  '-x+1/2, y+1/2, -z+1/2'
  14  'x+1/2, -y+1/2, z+1/2'
  15  'y, x, -z'
  16  '-y, -x, z'
loop_
 _atom_site_type_symbol
 _atom_site_label
 _atom_site_symmetry_multiplicity
 _atom_site_fract_x
 _atom_site_fract_y
 _atom_site_fract_z
 _atom_site_occupancy
  Li  Li1  8  0.104028  0.357266  0.500000  1
  Li  Li2  4  0.164822  0.164822  0.000000  1
  Co  Co3  4  0.115301  0.884699  0.500000  1
  O  O4  8  0.111321  0.678668  0.500000  1
  O  O5  4  0.099287  0.099287  0.500000  1
