# generated using pymatgen
data_Li3Co2O5
_symmetry_space_group_name_H-M   P-1
_cell_length_a   2.94310237
_cell_length_b   5.07411151
_cell_length_c   12.01685281
_cell_angle_alpha   95.11874933
_cell_angle_beta   94.45287878
_cell_angle_gamma   91.22957414
_symmetry_Int_Tables_number   2
_chemical_formula_structural   Li3Co2O5
_chemical_formula_sum   'Li6 Co4 O10'
_cell_volume   178.12720589
_cell_formula_units_Z   2
loop_
 _symmetry_equiv_pos_site_id
 _symmetry_equiv_pos_as_xyz
  1  'x, y, z'
  2  '-x, -y, -z'
loop_
 _atom_site_type_symbol
 _atom_site_label
 _atom_site_symmetry_multiplicity
 _atom_site_fract_x
 _atom_site_fract_y
 _atom_site_fract_z
 _atom_site_occupancy
  Li  Li1  2  0.089310  0.201562  0.699006  1
  Li  Li2  2  0.305068  0.599851  0.101380  1
  Li  Li3  1  0.000000  0.500000  0.500000  1
  Li  Li4  1  0.500000  0.000000  0.500000  1
  Co  Co5  2  0.196164  0.890434  0.898446  1
  Co  Co6  2  0.406725  0.312108  0.309109  1
  O  O7  2  0.018098  0.844226  0.607039  1
  O  O8  2  0.175499  0.563162  0.794541  1
  O  O9  2  0.241922  0.234374  0.002645  1
  O  O10  2  0.358760  0.988687  0.200838  1
  O  O11  2  0.445876  0.617159  0.389854  1
