# generated using pymatgen
data_Li3Co2O5
_symmetry_space_group_name_H-M   P-1
_cell_length_a   2.93565000
_cell_length_b   7.71025763
_cell_length_c   8.17780894
_cell_angle_alpha   104.57312271
_cell_angle_beta   90.57412652
_cell_angle_gamma   97.57591603
_symmetry_Int_Tables_number   2
_chemical_formula_structural   Li3Co2O5
_chemical_formula_sum   'Li6 Co4 O10'
_cell_volume   177.40253412
_cell_formula_units_Z   2
loop_
 _symmetry_equiv_pos_site_id
 _symmetry_equiv_pos_as_xyz
  1  'x, y, z'
  2  '-x, -y, -z'
loop_
 _atom_site_type_symbol
 _atom_site_label
 _atom_site_symmetry_multiplicity
 _atom_site_fract_x
 _atom_site_fract_y
 _atom_site_fract_z
 _atom_site_occupancy
  Li  Li1  2  0.091386  0.193860  0.787682  1
  Li  Li2  2  0.311779  0.601088  0.405691  1
  Li  Li3  1  0.500000  0.000000  0.000000  1
  Li  Li4  1  0.500000  0.000000  0.500000  1
  Co  Co5  2  0.093601  0.192828  0.312099  1
  Co  Co6  2  0.307118  0.599661  0.895724  1
  O  O7  2  0.098982  0.213918  0.072532  1
  O  O8  2  0.099626  0.201752  0.527588  1
  O  O9  2  0.288481  0.617201  0.657156  1
  O  O10  2  0.306709  0.589555  0.144383  1
  O  O11  2  0.470682  0.012341  0.251219  1
