# generated using pymatgen
data_Li3Mn4O8
_symmetry_space_group_name_H-M   C2/m
_cell_length_a   10.58307917
_cell_length_b   5.76395683
_cell_length_c   5.93518283
_cell_angle_alpha   90.00000000
_cell_angle_beta   122.85244454
_cell_angle_gamma   90.00000000
_symmetry_Int_Tables_number   12
_chemical_formula_structural   Li3Mn4O8
_chemical_formula_sum   'Li6 Mn8 O16'
_cell_volume   304.14631121
_cell_formula_units_Z   2
loop_
 _symmetry_equiv_pos_site_id
 _symmetry_equiv_pos_as_xyz
  1  'x, y, z'
  2  '-x, -y, -z'
  3  '-x, y, -z'
  4  'x, -y, z'
  5  'x+1/2, y+1/2, z'
  6  '-x+1/2, -y+1/2, -z'
  7  '-x+1/2, y+1/2, -z'
  8  'x+1/2, -y+1/2, z'
loop_
 _atom_site_type_symbol
 _atom_site_label
 _atom_site_symmetry_multiplicity
 _atom_site_fract_x
 _atom_site_fract_y
 _atom_site_fract_z
 _atom_site_occupancy
  Li  Li1  4  0.250000  0.250000  0.500000  1
  Li  Li2  2  0.000000  0.000000  0.000000  1
  Mn  Mn3  4  0.250000  0.250000  0.000000  1
  Mn  Mn4  2  0.000000  0.000000  0.500000  1
  Mn  Mn5  2  0.000000  0.500000  0.500000  1
  O  O6  8  0.006206  0.245842  0.286387  1
  O  O7  4  0.221521  0.000000  0.741107  1
  O  O8  4  0.243773  0.000000  0.213277  1
