# generated using pymatgen
data_Li3Mn2O5
_symmetry_space_group_name_H-M   C2/m
_cell_length_a   5.23675396
_cell_length_b   14.38674884
_cell_length_c   5.19778507
_cell_angle_alpha   90.00000000
_cell_angle_beta   111.99479961
_cell_angle_gamma   90.00000000
_symmetry_Int_Tables_number   12
_chemical_formula_structural   Li3Mn2O5
_chemical_formula_sum   'Li12 Mn8 O20'
_cell_volume   363.09890017
_cell_formula_units_Z   4
loop_
 _symmetry_equiv_pos_site_id
 _symmetry_equiv_pos_as_xyz
  1  'x, y, z'
  2  '-x, -y, -z'
  3  '-x, y, -z'
  4  'x, -y, z'
  5  'x+1/2, y+1/2, z'
  6  '-x+1/2, -y+1/2, -z'
  7  '-x+1/2, y+1/2, -z'
  8  'x+1/2, -y+1/2, z'
loop_
 _atom_site_type_symbol
 _atom_site_label
 _atom_site_symmetry_multiplicity
 _atom_site_fract_x
 _atom_site_fract_y
 _atom_site_fract_z
 _atom_site_occupancy
  Li  Li1  4  0.000000  0.197705  0.500000  1
  Li  Li2  4  0.000000  0.402629  0.500000  1
  Li  Li3  2  0.000000  0.000000  0.500000  1
  Li  Li4  2  0.000000  0.500000  0.000000  1
  Mn  Mn5  4  0.000000  0.099039  0.000000  1
  Mn  Mn6  4  0.000000  0.301978  0.000000  1
  O  O7  8  0.224210  0.197374  0.234082  1
  O  O8  8  0.240855  0.104937  0.785881  1
  O  O9  4  0.219645  0.000000  0.233189  1
