# generated using pymatgen
data_Li3Mn2O5
_symmetry_space_group_name_H-M   P-1
_cell_length_a   5.24297977
_cell_length_b   5.94157658
_cell_length_c   6.52234718
_cell_angle_alpha   104.19425184
_cell_angle_beta   96.08896705
_cell_angle_gamma   109.11363399
_symmetry_Int_Tables_number   2
_chemical_formula_structural   Li3Mn2O5
_chemical_formula_sum   'Li6 Mn4 O10'
_cell_volume   182.22637924
_cell_formula_units_Z   2
loop_
 _symmetry_equiv_pos_site_id
 _symmetry_equiv_pos_as_xyz
  1  'x, y, z'
  2  '-x, -y, -z'
loop_
 _atom_site_type_symbol
 _atom_site_label
 _atom_site_symmetry_multiplicity
 _atom_site_fract_x
 _atom_site_fract_y
 _atom_site_fract_z
 _atom_site_occupancy
  Li  Li1  2  0.201643  0.399586  0.899217  1
  Li  Li2  2  0.393146  0.796351  0.307076  1
  Li  Li3  1  0.000000  0.000000  0.500000  1
  Li  Li4  1  0.000000  0.500000  0.500000  1
  Mn  Mn5  2  0.198438  0.896350  0.897799  1
  Mn  Mn6  2  0.401091  0.301496  0.301955  1
  O  O7  2  0.110889  0.419174  0.201454  1
  O  O8  2  0.123413  0.962342  0.199619  1
  O  O9  2  0.321962  0.839537  0.625300  1
  O  O10  2  0.326828  0.361489  0.591599  1
  O  O11  2  0.477285  0.242536  0.011841  1
