# generated using pymatgen
data_Li4CoO4
_symmetry_space_group_name_H-M   Pm
_cell_length_a   4.85756376
_cell_length_b   6.40722722
_cell_length_c   6.41181698
_cell_angle_alpha   90.00000000
_cell_angle_beta   90.74682011
_cell_angle_gamma   90.00000000
_symmetry_Int_Tables_number   6
_chemical_formula_structural   Li4CoO4
_chemical_formula_sum   'Li8 Co2 O8'
_cell_volume   199.54132860
_cell_formula_units_Z   2
loop_
 _symmetry_equiv_pos_site_id
 _symmetry_equiv_pos_as_xyz
  1  'x, y, z'
  2  'x, -y, z'
loop_
 _atom_site_type_symbol
 _atom_site_label
 _atom_site_symmetry_multiplicity
 _atom_site_fract_x
 _atom_site_fract_y
 _atom_site_fract_z
 _atom_site_occupancy
  Li  Li1  2  0.244480  0.305819  0.521696  1
  Li  Li2  2  0.270525  0.292278  0.994177  1
  Li  Li3  2  0.756255  0.243230  0.428496  1
  Li  Li4  1  0.308832  0.000000  0.734895  1
  Li  Li5  1  0.790012  0.000000  0.804748  1
  Co  Co6  1  0.235926  0.000000  0.253159  1
  Co  Co7  1  0.742189  0.500000  0.761229  1
  O  O8  2  0.428166  0.234780  0.269233  1
  O  O9  2  0.532623  0.258132  0.740386  1
  O  O10  1  0.024555  0.000000  0.496559  1
  O  O11  1  0.101208  0.000000  0.989323  1
  O  O12  1  0.944796  0.500000  0.521146  1
  O  O13  1  0.985441  0.500000  0.962943  1
