# generated using pymatgen
data_Li4CoO4
_symmetry_space_group_name_H-M   Pbca
_cell_length_a   5.41280015
_cell_length_b   16.07593257
_cell_length_c   8.94758037
_cell_angle_alpha   90.00000000
_cell_angle_beta   90.00000000
_cell_angle_gamma   90.00000000
_symmetry_Int_Tables_number   61
_chemical_formula_structural   Li4CoO4
_chemical_formula_sum   'Li32 Co8 O32'
_cell_volume   778.58095546
_cell_formula_units_Z   8
loop_
 _symmetry_equiv_pos_site_id
 _symmetry_equiv_pos_as_xyz
  1  'x, y, z'
  2  '-x, -y, -z'
  3  '-x+1/2, -y, z+1/2'
  4  'x+1/2, y, -z+1/2'
  5  'x+1/2, -y+1/2, -z'
  6  '-x+1/2, y+1/2, z'
  7  '-x, y+1/2, -z+1/2'
  8  'x, -y+1/2, z+1/2'
loop_
 _atom_site_type_symbol
 _atom_site_label
 _atom_site_symmetry_multiplicity
 _atom_site_fract_x
 _atom_site_fract_y
 _atom_site_fract_z
 _atom_site_occupancy
  Li  Li1  8  0.079893  0.569846  0.052542  1
  Li  Li2  8  0.080734  0.166322  0.171790  1
  Li  Li3  8  0.093112  0.014427  0.833250  1
  Li  Li4  8  0.139430  0.240298  0.898995  1
  Co  Co5  8  0.189684  0.628132  0.556518  1
  O  O6  8  0.140619  0.118090  0.957475  1
  O  O7  8  0.192321  0.033339  0.631134  1
  O  O8  8  0.212998  0.129960  0.359954  1
  O  O9  8  0.248580  0.729720  0.627878  1
