# generated using pymatgen
data_Li4CoO4
_symmetry_space_group_name_H-M   Pnnm
_cell_length_a   6.71207958
_cell_length_b   9.21639249
_cell_length_c   6.31184861
_cell_angle_alpha   90.00000000
_cell_angle_beta   90.00000000
_cell_angle_gamma   90.00000000
_symmetry_Int_Tables_number   58
_chemical_formula_structural   Li4CoO4
_chemical_formula_sum   'Li16 Co4 O16'
_cell_volume   390.45827571
_cell_formula_units_Z   4
loop_
 _symmetry_equiv_pos_site_id
 _symmetry_equiv_pos_as_xyz
  1  'x, y, z'
  2  '-x, -y, -z'
  3  '-x, -y, z'
  4  'x, y, -z'
  5  'x+1/2, -y+1/2, -z+1/2'
  6  '-x+1/2, y+1/2, z+1/2'
  7  '-x+1/2, y+1/2, -z+1/2'
  8  'x+1/2, -y+1/2, z+1/2'
loop_
 _atom_site_type_symbol
 _atom_site_label
 _atom_site_symmetry_multiplicity
 _atom_site_fract_x
 _atom_site_fract_y
 _atom_site_fract_z
 _atom_site_occupancy
  Li  Li1  8  0.038031  0.130454  0.246687  1
  Li  Li2  4  0.180964  0.587697  0.000000  1
  Li  Li3  4  0.249318  0.819646  0.500000  1
  Co  Co4  4  0.241657  0.374468  0.500000  1
  O  O5  8  0.229760  0.968565  0.250269  1
  O  O6  4  0.025401  0.763287  0.000000  1
  O  O7  4  0.049580  0.238828  0.500000  1
