# generated using pymatgen
data_Li4CoO3
_symmetry_space_group_name_H-M   Cc
_cell_length_a   10.00509238
_cell_length_b   5.09640453
_cell_length_c   6.95633143
_cell_angle_alpha   90.00000000
_cell_angle_beta   112.01894357
_cell_angle_gamma   90.00000000
_symmetry_Int_Tables_number   9
_chemical_formula_structural   Li4CoO3
_chemical_formula_sum   'Li16 Co4 O12'
_cell_volume   328.83124807
_cell_formula_units_Z   4
loop_
 _symmetry_equiv_pos_site_id
 _symmetry_equiv_pos_as_xyz
  1  'x, y, z'
  2  'x, -y, z+1/2'
  3  'x+1/2, y+1/2, z'
  4  'x+1/2, -y+1/2, z+1/2'
loop_
 _atom_site_type_symbol
 _atom_site_label
 _atom_site_symmetry_multiplicity
 _atom_site_fract_x
 _atom_site_fract_y
 _atom_site_fract_z
 _atom_site_occupancy
  Li  Li1  4  0.044748  0.342318  0.781159  1
  Li  Li2  4  0.287583  0.351548  0.185295  1
  Li  Li3  4  0.397075  0.153705  0.890150  1
  Li  Li4  4  0.477014  0.289459  0.591063  1
  Co  Co5  4  0.159563  0.142916  0.504693  1
  O  O6  4  0.105315  0.482228  0.555486  1
  O  O7  4  0.336558  0.008099  0.106777  1
  O  O8  4  0.473339  0.497867  0.843611  1
