# generated using pymatgen
data_Li5(CoO3)2
_symmetry_space_group_name_H-M   P1
_cell_length_a   5.43945904
_cell_length_b   5.46913624
_cell_length_c   5.56644939
_cell_angle_alpha   61.69155726
_cell_angle_beta   89.94224166
_cell_angle_gamma   89.09220521
_symmetry_Int_Tables_number   1
_chemical_formula_structural   Li5(CoO3)2
_chemical_formula_sum   'Li5 Co2 O6'
_cell_volume   145.77064400
_cell_formula_units_Z   1
loop_
 _symmetry_equiv_pos_site_id
 _symmetry_equiv_pos_as_xyz
  1  'x, y, z'
loop_
 _atom_site_type_symbol
 _atom_site_label
 _atom_site_symmetry_multiplicity
 _atom_site_fract_x
 _atom_site_fract_y
 _atom_site_fract_z
 _atom_site_occupancy
  Li  Li1  1  0.114429  0.491047  0.807635  1
  Li  Li2  1  0.131565  0.986608  0.199022  1
  Li  Li3  1  0.561299  0.266799  0.038840  1
  Li  Li4  1  0.851059  0.998802  0.794822  1
  Li  Li5  1  0.900465  0.502825  0.189310  1
  Co  Co6  1  0.347889  0.329032  0.491291  1
  Co  Co7  1  0.660733  0.689748  0.496635  1
  O  O8  1  0.202767  0.117544  0.802771  1
  O  O9  1  0.231686  0.334918  0.188764  1
  O  O10  1  0.304731  0.675894  0.480337  1
  O  O11  1  0.687598  0.319358  0.500828  1
  O  O12  1  0.780713  0.619409  0.823835  1
  O  O13  1  0.780731  0.932992  0.177502  1
