# generated using pymatgen
data_Li5Co3O8
_symmetry_space_group_name_H-M   P-1
_cell_length_a   2.98141599
_cell_length_b   5.08325884
_cell_length_c   9.87922383
_cell_angle_alpha   101.48547570
_cell_angle_beta   91.33816724
_cell_angle_gamma   105.08116472
_symmetry_Int_Tables_number   2
_chemical_formula_structural   Li5Co3O8
_chemical_formula_sum   'Li5 Co3 O8'
_cell_volume   141.22341751
_cell_formula_units_Z   1
loop_
 _symmetry_equiv_pos_site_id
 _symmetry_equiv_pos_as_xyz
  1  'x, y, z'
  2  '-x, -y, -z'
loop_
 _atom_site_type_symbol
 _atom_site_label
 _atom_site_symmetry_multiplicity
 _atom_site_fract_x
 _atom_site_fract_y
 _atom_site_fract_z
 _atom_site_occupancy
  Li  Li1  2  0.246565  0.503595  0.126422  1
  Li  Li2  2  0.248856  0.491564  0.625565  1
  Li  Li3  1  0.500000  0.000000  0.500000  1
  Co  Co4  2  0.001571  0.999150  0.740346  1
  Co  Co5  1  0.500000  0.000000  0.000000  1
  O  O6  2  0.105721  0.224200  0.926850  1
  O  O7  2  0.118684  0.236800  0.418649  1
  O  O8  2  0.354920  0.771596  0.818063  1
  O  O9  2  0.357673  0.772603  0.308011  1
