# generated using pymatgen
data_Li5CoO4
_symmetry_space_group_name_H-M   Pnnm
_cell_length_a   7.08101468
_cell_length_b   7.99330916
_cell_length_c   6.68264947
_cell_angle_alpha   90.00000000
_cell_angle_beta   90.00000000
_cell_angle_gamma   90.00000000
_symmetry_Int_Tables_number   58
_chemical_formula_structural   Li5CoO4
_chemical_formula_sum   'Li20 Co4 O16'
_cell_volume   378.24290185
_cell_formula_units_Z   4
loop_
 _symmetry_equiv_pos_site_id
 _symmetry_equiv_pos_as_xyz
  1  'x, y, z'
  2  '-x, -y, -z'
  3  '-x, -y, z'
  4  'x, y, -z'
  5  'x+1/2, -y+1/2, -z+1/2'
  6  '-x+1/2, y+1/2, z+1/2'
  7  '-x+1/2, y+1/2, -z+1/2'
  8  'x+1/2, -y+1/2, z+1/2'
loop_
 _atom_site_type_symbol
 _atom_site_label
 _atom_site_symmetry_multiplicity
 _atom_site_fract_x
 _atom_site_fract_y
 _atom_site_fract_z
 _atom_site_occupancy
  Li  Li1  8  0.022057  0.844476  0.255117  1
  Li  Li2  4  0.000000  0.500000  0.256620  1
  Li  Li3  4  0.242096  0.203809  0.500000  1
  Li  Li4  4  0.243976  0.402226  0.000000  1
  Co  Co5  4  0.232344  0.102805  0.000000  1
  O  O6  8  0.217586  0.024021  0.259572  1
  O  O7  4  0.023240  0.263092  0.000000  1
  O  O8  4  0.031486  0.716184  0.500000  1
