# generated using pymatgen
data_Li5Co3O8
_symmetry_space_group_name_H-M   P2/m
_cell_length_a   4.96749562
_cell_length_b   5.84107873
_cell_length_c   5.06098798
_cell_angle_alpha   90.00000000
_cell_angle_beta   109.10687706
_cell_angle_gamma   90.00000000
_symmetry_Int_Tables_number   10
_chemical_formula_structural   Li5Co3O8
_chemical_formula_sum   'Li5 Co3 O8'
_cell_volume   138.75739374
_cell_formula_units_Z   1
loop_
 _symmetry_equiv_pos_site_id
 _symmetry_equiv_pos_as_xyz
  1  'x, y, z'
  2  '-x, -y, -z'
  3  '-x, y, -z'
  4  'x, -y, z'
loop_
 _atom_site_type_symbol
 _atom_site_label
 _atom_site_symmetry_multiplicity
 _atom_site_fract_x
 _atom_site_fract_y
 _atom_site_fract_z
 _atom_site_occupancy
  Li  Li1  2  0.500000  0.257676  0.500000  1
  Li  Li2  1  0.000000  0.000000  0.500000  1
  Li  Li3  1  0.000000  0.500000  0.500000  1
  Li  Li4  1  0.500000  0.500000  0.000000  1
  Co  Co5  2  0.000000  0.255321  0.000000  1
  Co  Co6  1  0.500000  0.000000  0.000000  1
  O  O7  4  0.254543  0.229017  0.780671  1
  O  O8  2  0.222116  0.500000  0.240054  1
  O  O9  2  0.254823  0.000000  0.224717  1
