# generated using pymatgen
data_Li5Co3O8
_symmetry_space_group_name_H-M   P-1
_cell_length_a   2.97635809
_cell_length_b   6.31304058
_cell_length_c   7.77942927
_cell_angle_alpha   88.22191139
_cell_angle_beta   80.83574933
_cell_angle_gamma   76.85901444
_symmetry_Int_Tables_number   2
_chemical_formula_structural   Li5Co3O8
_chemical_formula_sum   'Li5 Co3 O8'
_cell_volume   140.52769830
_cell_formula_units_Z   1
loop_
 _symmetry_equiv_pos_site_id
 _symmetry_equiv_pos_as_xyz
  1  'x, y, z'
  2  '-x, -y, -z'
loop_
 _atom_site_type_symbol
 _atom_site_label
 _atom_site_symmetry_multiplicity
 _atom_site_fract_x
 _atom_site_fract_y
 _atom_site_fract_z
 _atom_site_occupancy
  Li  Li1  2  0.240009  0.630398  0.379142  1
  Li  Li2  2  0.256553  0.119361  0.875738  1
  Li  Li3  1  0.500000  0.000000  0.500000  1
  Co  Co4  2  0.003010  0.756761  0.739198  1
  Co  Co5  1  0.500000  0.500000  0.000000  1
  O  O6  2  0.103697  0.460706  0.813971  1
  O  O7  2  0.117359  0.965237  0.301805  1
  O  O8  2  0.357364  0.795508  0.929996  1
  O  O9  2  0.357780  0.307037  0.421477  1
