# generated using pymatgen
data_Li5Co3O8
_symmetry_space_group_name_H-M   P-1
_cell_length_a   5.03055832
_cell_length_b   5.74988128
_cell_length_c   5.78959808
_cell_angle_alpha   60.48251733
_cell_angle_beta   74.37975976
_cell_angle_gamma   73.75431795
_symmetry_Int_Tables_number   2
_chemical_formula_structural   Li5Co3O8
_chemical_formula_sum   'Li5 Co3 O8'
_cell_volume   138.16793742
_cell_formula_units_Z   1
loop_
 _symmetry_equiv_pos_site_id
 _symmetry_equiv_pos_as_xyz
  1  'x, y, z'
  2  '-x, -y, -z'
loop_
 _atom_site_type_symbol
 _atom_site_label
 _atom_site_symmetry_multiplicity
 _atom_site_fract_x
 _atom_site_fract_y
 _atom_site_fract_z
 _atom_site_occupancy
  Li  Li1  2  0.496303  0.756047  0.248335  1
  Li  Li2  2  0.497088  0.755933  0.747153  1
  Li  Li3  1  0.000000  0.000000  0.500000  1
  Co  Co4  1  0.000000  0.000000  0.000000  1
  Co  Co5  1  0.000000  0.500000  0.000000  1
  Co  Co6  1  0.000000  0.500000  0.500000  1
  O  O7  2  0.216754  0.133053  0.649290  1
  O  O8  2  0.220020  0.608665  0.622910  1
  O  O9  2  0.221992  0.133153  0.112011  1
  O  O10  2  0.237920  0.643546  0.115132  1
