# generated using pymatgen
data_Li5Co3O8
_symmetry_space_group_name_H-M   C2/m
_cell_length_a   9.83170692
_cell_length_b   2.98413376
_cell_length_c   9.84852217
_cell_angle_alpha   90.00000000
_cell_angle_beta   102.60095952
_cell_angle_gamma   90.00000000
_symmetry_Int_Tables_number   12
_chemical_formula_structural   Li5Co3O8
_chemical_formula_sum   'Li10 Co6 O16'
_cell_volume   281.98722138
_cell_formula_units_Z   2
loop_
 _symmetry_equiv_pos_site_id
 _symmetry_equiv_pos_as_xyz
  1  'x, y, z'
  2  '-x, -y, -z'
  3  '-x, y, -z'
  4  'x, -y, z'
  5  'x+1/2, y+1/2, z'
  6  '-x+1/2, -y+1/2, -z'
  7  '-x+1/2, y+1/2, -z'
  8  'x+1/2, -y+1/2, z'
loop_
 _atom_site_type_symbol
 _atom_site_label
 _atom_site_symmetry_multiplicity
 _atom_site_fract_x
 _atom_site_fract_y
 _atom_site_fract_z
 _atom_site_occupancy
  Li  Li1  4  0.244903  0.000000  0.125877  1
  Li  Li2  4  0.246140  0.500000  0.373170  1
  Li  Li3  2  0.000000  0.500000  0.000000  1
  Co  Co4  4  0.001521  0.000000  0.760879  1
  Co  Co5  2  0.000000  0.500000  0.500000  1
  O  O6  4  0.110388  0.000000  0.425922  1
  O  O7  4  0.112143  0.500000  0.191523  1
  O  O8  4  0.115494  0.500000  0.680890  1
  O  O9  4  0.119279  0.000000  0.919577  1
