# generated using pymatgen
data_Li5Co3O8
_symmetry_space_group_name_H-M   P-1
_cell_length_a   4.99063797
_cell_length_b   5.79947780
_cell_length_c   5.90917687
_cell_angle_alpha   60.70972396
_cell_angle_beta   88.16383051
_cell_angle_gamma   73.02310353
_symmetry_Int_Tables_number   2
_chemical_formula_structural   Li5Co3O8
_chemical_formula_sum   'Li5 Co3 O8'
_cell_volume   141.39954457
_cell_formula_units_Z   1
loop_
 _symmetry_equiv_pos_site_id
 _symmetry_equiv_pos_as_xyz
  1  'x, y, z'
  2  '-x, -y, -z'
loop_
 _atom_site_type_symbol
 _atom_site_label
 _atom_site_symmetry_multiplicity
 _atom_site_fract_x
 _atom_site_fract_y
 _atom_site_fract_z
 _atom_site_occupancy
  Li  Li1  2  0.010332  0.496366  0.250139  1
  Li  Li2  1  0.500000  0.000000  0.500000  1
  Li  Li3  1  0.500000  0.500000  0.000000  1
  Li  Li4  1  0.500000  0.500000  0.500000  1
  Co  Co5  2  0.001179  0.005005  0.740957  1
  Co  Co6  1  0.500000  0.000000  0.000000  1
  O  O7  2  0.225059  0.766656  0.630863  1
  O  O8  2  0.234677  0.219201  0.649980  1
  O  O9  2  0.238519  0.217634  0.129944  1
  O  O10  2  0.247108  0.760958  0.135184  1
