# generated using pymatgen
data_Li5CoO4
_symmetry_space_group_name_H-M   Aea2
_cell_length_a   4.72322770
_cell_length_b   8.80676160
_cell_length_c   9.44180988
_cell_angle_alpha   90.00000000
_cell_angle_beta   90.00000000
_cell_angle_gamma   90.00000000
_symmetry_Int_Tables_number   41
_chemical_formula_structural   Li5CoO4
_chemical_formula_sum   'Li20 Co4 O16'
_cell_volume   392.74473662
_cell_formula_units_Z   4
loop_
 _symmetry_equiv_pos_site_id
 _symmetry_equiv_pos_as_xyz
  1  'x, y, z'
  2  '-x, -y, z'
  3  '-x+1/2, y+1/2, z'
  4  'x+1/2, -y+1/2, z'
  5  'x, y+1/2, z+1/2'
  6  '-x, -y+1/2, z+1/2'
  7  '-x+1/2, y, z+1/2'
  8  'x+1/2, -y, z+1/2'
loop_
 _atom_site_type_symbol
 _atom_site_label
 _atom_site_symmetry_multiplicity
 _atom_site_fract_x
 _atom_site_fract_y
 _atom_site_fract_z
 _atom_site_occupancy
  Li  Li1  8  0.026236  0.204756  0.245932  1
  Li  Li2  8  0.058538  0.217679  0.997868  1
  Li  Li3  4  0.000000  0.000000  0.482174  1
  Co  Co4  4  0.000000  0.000000  0.756622  1
  O  O5  8  0.160405  0.139814  0.626121  1
  O  O6  8  0.224216  0.369166  0.368843  1
