# generated using pymatgen
data_Li5Co3O8
_symmetry_space_group_name_H-M   P-1
_cell_length_a   2.98765297
_cell_length_b   5.02592927
_cell_length_c   9.73237882
_cell_angle_alpha   76.96137511
_cell_angle_beta   88.16476360
_cell_angle_gamma   88.87858127
_symmetry_Int_Tables_number   2
_chemical_formula_structural   Li5Co3O8
_chemical_formula_sum   'Li5 Co3 O8'
_cell_volume   142.28660808
_cell_formula_units_Z   1
loop_
 _symmetry_equiv_pos_site_id
 _symmetry_equiv_pos_as_xyz
  1  'x, y, z'
  2  '-x, -y, -z'
loop_
 _atom_site_type_symbol
 _atom_site_label
 _atom_site_symmetry_multiplicity
 _atom_site_fract_x
 _atom_site_fract_y
 _atom_site_fract_z
 _atom_site_occupancy
  Li  Li1  2  0.494324  0.746637  0.250670  1
  Li  Li2  1  0.000000  0.000000  0.000000  1
  Li  Li3  1  0.000000  0.500000  0.500000  1
  Li  Li4  1  0.500000  0.500000  0.000000  1
  Co  Co5  2  0.001193  0.743908  0.760026  1
  Co  Co6  1  0.500000  0.000000  0.500000  1
  O  O7  2  0.000254  0.587576  0.139448  1
  O  O8  2  0.009153  0.908606  0.371399  1
  O  O9  2  0.466220  0.645761  0.624230  1
  O  O10  2  0.470499  0.131867  0.134259  1
