# generated using pymatgen
data_Li5Co3O8
_symmetry_space_group_name_H-M   P2/m
_cell_length_a   4.98195734
_cell_length_b   2.94789142
_cell_length_c   9.74002077
_cell_angle_alpha   90.00000000
_cell_angle_beta   102.03084836
_cell_angle_gamma   90.00000000
_symmetry_Int_Tables_number   10
_chemical_formula_structural   Li5Co3O8
_chemical_formula_sum   'Li5 Co3 O8'
_cell_volume   139.90266825
_cell_formula_units_Z   1
loop_
 _symmetry_equiv_pos_site_id
 _symmetry_equiv_pos_as_xyz
  1  'x, y, z'
  2  '-x, -y, -z'
  3  '-x, y, -z'
  4  'x, -y, z'
loop_
 _atom_site_type_symbol
 _atom_site_label
 _atom_site_symmetry_multiplicity
 _atom_site_fract_x
 _atom_site_fract_y
 _atom_site_fract_z
 _atom_site_occupancy
  Li  Li1  2  0.240740  0.000000  0.744520  1
  Li  Li2  2  0.251479  0.500000  0.254715  1
  Li  Li3  1  0.000000  0.500000  0.500000  1
  Co  Co4  1  0.000000  0.000000  0.000000  1
  Co  Co5  1  0.500000  0.000000  0.500000  1
  Co  Co6  1  0.500000  0.500000  0.000000  1
  O  O7  2  0.132485  0.500000  0.881332  1
  O  O8  2  0.167931  0.000000  0.388524  1
  O  O9  2  0.367638  0.000000  0.115911  1
  O  O10  2  0.389353  0.500000  0.608753  1
