# generated using pymatgen
data_Li5Co3O8
_symmetry_space_group_name_H-M   P-1
_cell_length_a   2.98978121
_cell_length_b   5.94897448
_cell_length_c   7.99553592
_cell_angle_alpha   90.91998851
_cell_angle_beta   90.21325620
_cell_angle_gamma   92.01005905
_symmetry_Int_Tables_number   2
_chemical_formula_structural   Li5Co3O8
_chemical_formula_sum   'Li5 Co3 O8'
_cell_volume   142.10252722
_cell_formula_units_Z   1
loop_
 _symmetry_equiv_pos_site_id
 _symmetry_equiv_pos_as_xyz
  1  'x, y, z'
  2  '-x, -y, -z'
loop_
 _atom_site_type_symbol
 _atom_site_label
 _atom_site_symmetry_multiplicity
 _atom_site_fract_x
 _atom_site_fract_y
 _atom_site_fract_z
 _atom_site_occupancy
  Li  Li1  2  0.002824  0.758303  0.242481  1
  Li  Li2  1  0.500000  0.000000  0.000000  1
  Li  Li3  1  0.500000  0.000000  0.500000  1
  Li  Li4  1  0.500000  0.500000  0.000000  1
  Co  Co5  2  0.000746  0.239886  0.240542  1
  Co  Co6  1  0.500000  0.500000  0.500000  1
  O  O7  2  0.000927  0.252221  0.024107  1
  O  O8  2  0.006950  0.737753  0.519906  1
  O  O9  2  0.461170  0.492612  0.261036  1
  O  O10  2  0.470609  0.983819  0.749891  1
