# generated using pymatgen
data_Li5Co3O8
_symmetry_space_group_name_H-M   C2/m
_cell_length_a   12.25221473
_cell_length_b   2.98994258
_cell_length_c   9.80613049
_cell_angle_alpha   90.00000000
_cell_angle_beta   128.36183605
_cell_angle_gamma   90.00000000
_symmetry_Int_Tables_number   12
_chemical_formula_structural   Li5Co3O8
_chemical_formula_sum   'Li10 Co6 O16'
_cell_volume   281.67639798
_cell_formula_units_Z   2
loop_
 _symmetry_equiv_pos_site_id
 _symmetry_equiv_pos_as_xyz
  1  'x, y, z'
  2  '-x+1/2, -y+1/2, -z'
  3  '-x+1/2, y+1/2, -z'
  4  'x, -y, z'
  5  'x+1/2, y+1/2, z'
  6  '-x, -y, -z'
  7  '-x, y, -z'
  8  'x+1/2, -y+1/2, z'
loop_
 _atom_site_type_symbol
 _atom_site_label
 _atom_site_symmetry_multiplicity
 _atom_site_fract_x
 _atom_site_fract_y
 _atom_site_fract_z
 _atom_site_occupancy
  Li  Li1  4  0.245492  0.500000  0.873362  1
  Li  Li2  4  0.245810  0.000000  0.622174  1
  Li  Li3  2  0.000000  0.500000  0.500000  1
  Co  Co4  4  0.003474  0.000000  0.261689  1
  Co  Co5  2  0.000000  0.500000  0.000000  1
  O  O6  4  0.113017  0.000000  0.184819  1
  O  O7  4  0.114246  0.500000  0.931236  1
  O  O8  4  0.114978  0.000000  0.696705  1
  O  O9  4  0.115463  0.500000  0.421166  1
