# generated using pymatgen
data_Li5Co3O8
_symmetry_space_group_name_H-M   P2/m
_cell_length_a   5.00106383
_cell_length_b   2.98501244
_cell_length_c   9.70602733
_cell_angle_alpha   90.00000000
_cell_angle_beta   103.09014544
_cell_angle_gamma   90.00000000
_symmetry_Int_Tables_number   10
_chemical_formula_structural   Li5Co3O8
_chemical_formula_sum   'Li5 Co3 O8'
_cell_volume   141.12880670
_cell_formula_units_Z   1
loop_
 _symmetry_equiv_pos_site_id
 _symmetry_equiv_pos_as_xyz
  1  'x, y, z'
  2  '-x, -y, -z'
  3  '-x, y, -z'
  4  'x, -y, z'
loop_
 _atom_site_type_symbol
 _atom_site_label
 _atom_site_symmetry_multiplicity
 _atom_site_fract_x
 _atom_site_fract_y
 _atom_site_fract_z
 _atom_site_occupancy
  Li  Li1  2  0.246003  0.500000  0.748444  1
  Li  Li2  1  0.000000  0.000000  0.500000  1
  Li  Li3  1  0.000000  0.500000  0.000000  1
  Li  Li4  1  0.500000  0.000000  0.000000  1
  Co  Co5  2  0.244137  0.000000  0.239322  1
  Co  Co6  1  0.500000  0.500000  0.500000  1
  O  O7  2  0.087621  0.000000  0.861104  1
  O  O8  2  0.144946  0.500000  0.377070  1
  O  O9  2  0.369420  0.500000  0.134238  1
  O  O10  2  0.409027  0.000000  0.629048  1
