# generated using pymatgen
data_Li5Mn3O8
_symmetry_space_group_name_H-M   P-1
_cell_length_a   5.05859407
_cell_length_b   5.16846499
_cell_length_c   5.76466690
_cell_angle_alpha   90.01876702
_cell_angle_beta   106.59247994
_cell_angle_gamma   98.76077428
_symmetry_Int_Tables_number   2
_chemical_formula_structural   Li5Mn3O8
_chemical_formula_sum   'Li5 Mn3 O8'
_cell_volume   142.60419006
_cell_formula_units_Z   1
loop_
 _symmetry_equiv_pos_site_id
 _symmetry_equiv_pos_as_xyz
  1  'x, y, z'
  2  '-x, -y, -z'
loop_
 _atom_site_type_symbol
 _atom_site_label
 _atom_site_symmetry_multiplicity
 _atom_site_fract_x
 _atom_site_fract_y
 _atom_site_fract_z
 _atom_site_occupancy
  Li  Li1  2  0.488341  0.759406  0.618388  1
  Li  Li2  2  0.495610  0.752582  0.127410  1
  Li  Li3  1  0.000000  0.000000  0.500000  1
  Mn  Mn4  2  0.000064  0.500429  0.747041  1
  Mn  Mn5  1  0.000000  0.000000  0.000000  1
  O  O6  2  0.218760  0.852004  0.814770  1
  O  O7  2  0.220069  0.853219  0.295497  1
  O  O8  2  0.227606  0.398134  0.556804  1
  O  O9  2  0.232096  0.395662  0.058254  1
