# generated using pymatgen
data_Li5Mn3O8
_symmetry_space_group_name_H-M   C2/m
_cell_length_a   10.32234555
_cell_length_b   5.76825617
_cell_length_c   5.12849682
_cell_angle_alpha   90.00000000
_cell_angle_beta   111.01816435
_cell_angle_gamma   90.00000000
_symmetry_Int_Tables_number   12
_chemical_formula_structural   Li5Mn3O8
_chemical_formula_sum   'Li10 Mn6 O16'
_cell_volume   285.04398722
_cell_formula_units_Z   2
loop_
 _symmetry_equiv_pos_site_id
 _symmetry_equiv_pos_as_xyz
  1  'x, y, z'
  2  '-x, -y, -z'
  3  '-x, y, -z'
  4  'x, -y, z'
  5  'x+1/2, y+1/2, z'
  6  '-x+1/2, -y+1/2, -z'
  7  '-x+1/2, y+1/2, -z'
  8  'x+1/2, -y+1/2, z'
loop_
 _atom_site_type_symbol
 _atom_site_label
 _atom_site_symmetry_multiplicity
 _atom_site_fract_x
 _atom_site_fract_y
 _atom_site_fract_z
 _atom_site_occupancy
  Li  Li1  4  0.000000  0.238125  0.500000  1
  Li  Li2  4  0.245888  0.000000  0.498782  1
  Li  Li3  2  0.000000  0.000000  0.000000  1
  Mn  Mn4  4  0.250000  0.250000  0.000000  1
  Mn  Mn5  2  0.000000  0.500000  0.000000  1
  O  O6  8  0.129365  0.261599  0.215114  1
  O  O7  4  0.136791  0.000000  0.770286  1
  O  O8  4  0.141914  0.500000  0.761239  1
