# generated using pymatgen
data_Li5Mn3O8
_symmetry_space_group_name_H-M   P-1
_cell_length_a   5.05444126
_cell_length_b   5.77226034
_cell_length_c   5.91479863
_cell_angle_alpha   60.85830870
_cell_angle_beta   74.20782736
_cell_angle_gamma   73.42026867
_symmetry_Int_Tables_number   2
_chemical_formula_structural   Li5Mn3O8
_chemical_formula_sum   'Li5 Mn3 O8'
_cell_volume   142.61677489
_cell_formula_units_Z   1
loop_
 _symmetry_equiv_pos_site_id
 _symmetry_equiv_pos_as_xyz
  1  'x, y, z'
  2  '-x, -y, -z'
loop_
 _atom_site_type_symbol
 _atom_site_label
 _atom_site_symmetry_multiplicity
 _atom_site_fract_x
 _atom_site_fract_y
 _atom_site_fract_z
 _atom_site_occupancy
  Li  Li1  2  0.490730  0.763364  0.738726  1
  Li  Li2  2  0.493987  0.246786  0.749851  1
  Li  Li3  1  0.000000  0.000000  0.500000  1
  Mn  Mn4  1  0.000000  0.000000  0.000000  1
  Mn  Mn5  1  0.000000  0.500000  0.000000  1
  Mn  Mn6  1  0.000000  0.500000  0.500000  1
  O  O7  2  0.219462  0.608319  0.648724  1
  O  O8  2  0.220284  0.132651  0.647407  1
  O  O9  2  0.224072  0.138173  0.111153  1
  O  O10  2  0.234667  0.643516  0.096478  1
