# generated using pymatgen
data_Li5Mn3O8
_symmetry_space_group_name_H-M   C2/m
_cell_length_a   10.28546947
_cell_length_b   5.75463729
_cell_length_c   5.82275175
_cell_angle_alpha   90.00000000
_cell_angle_beta   124.11929389
_cell_angle_gamma   90.00000000
_symmetry_Int_Tables_number   12
_chemical_formula_structural   Li5Mn3O8
_chemical_formula_sum   'Li10 Mn6 O16'
_cell_volume   285.32069960
_cell_formula_units_Z   2
loop_
 _symmetry_equiv_pos_site_id
 _symmetry_equiv_pos_as_xyz
  1  'x, y, z'
  2  '-x, -y, -z'
  3  '-x, y, -z'
  4  'x, -y, z'
  5  'x+1/2, y+1/2, z'
  6  '-x+1/2, -y+1/2, -z'
  7  '-x+1/2, y+1/2, -z'
  8  'x+1/2, -y+1/2, z'
loop_
 _atom_site_type_symbol
 _atom_site_label
 _atom_site_symmetry_multiplicity
 _atom_site_fract_x
 _atom_site_fract_y
 _atom_site_fract_z
 _atom_site_occupancy
  Li  Li1  4  0.250000  0.250000  0.000000  1
  Li  Li2  2  0.000000  0.000000  0.500000  1
  Li  Li3  2  0.000000  0.500000  0.000000  1
  Li  Li4  2  0.000000  0.500000  0.500000  1
  Mn  Mn5  4  0.250000  0.250000  0.500000  1
  Mn  Mn6  2  0.000000  0.000000  0.000000  1
  O  O7  8  0.021634  0.238609  0.257725  1
  O  O8  4  0.238453  0.500000  0.716153  1
  O  O9  4  0.249106  0.000000  0.725513  1
