# generated using pymatgen
data_Li5Mn3O8
_symmetry_space_group_name_H-M   C2/m
_cell_length_a   10.25832358
_cell_length_b   5.75077723
_cell_length_c   5.16563602
_cell_angle_alpha   90.00000000
_cell_angle_beta   111.25227084
_cell_angle_gamma   90.00000000
_symmetry_Int_Tables_number   12
_chemical_formula_structural   Li5Mn3O8
_chemical_formula_sum   'Li10 Mn6 O16'
_cell_volume   284.01391963
_cell_formula_units_Z   2
loop_
 _symmetry_equiv_pos_site_id
 _symmetry_equiv_pos_as_xyz
  1  'x, y, z'
  2  '-x, -y, -z'
  3  '-x, y, -z'
  4  'x, -y, z'
  5  'x+1/2, y+1/2, z'
  6  '-x+1/2, -y+1/2, -z'
  7  '-x+1/2, y+1/2, -z'
  8  'x+1/2, -y+1/2, z'
loop_
 _atom_site_type_symbol
 _atom_site_label
 _atom_site_symmetry_multiplicity
 _atom_site_fract_x
 _atom_site_fract_y
 _atom_site_fract_z
 _atom_site_occupancy
  Li  Li1  4  0.247228  0.500000  0.492596  1
  Li  Li2  4  0.250000  0.250000  0.000000  1
  Li  Li3  2  0.000000  0.500000  0.000000  1
  Mn  Mn4  4  0.000000  0.252942  0.500000  1
  Mn  Mn5  2  0.000000  0.000000  0.000000  1
  O  O6  8  0.107093  0.240317  0.257691  1
  O  O7  4  0.115438  0.500000  0.718657  1
  O  O8  4  0.119140  0.000000  0.722888  1
