# generated using pymatgen
data_Li6(CoO2)5
_symmetry_space_group_name_H-M   P-1
_cell_length_a   5.44464493
_cell_length_b   6.34520405
_cell_length_c   8.35098052
_cell_angle_alpha   77.36764204
_cell_angle_beta   76.95439812
_cell_angle_gamma   67.41628990
_symmetry_Int_Tables_number   2
_chemical_formula_structural   Li6(CoO2)5
_chemical_formula_sum   'Li6 Co5 O10'
_cell_volume   256.69685056
_cell_formula_units_Z   1
loop_
 _symmetry_equiv_pos_site_id
 _symmetry_equiv_pos_as_xyz
  1  'x, y, z'
  2  '-x, -y, -z'
loop_
 _atom_site_type_symbol
 _atom_site_label
 _atom_site_symmetry_multiplicity
 _atom_site_fract_x
 _atom_site_fract_y
 _atom_site_fract_z
 _atom_site_occupancy
  Li  Li1  2  0.045655  0.168840  0.060954  1
  Li  Li2  2  0.045735  0.738039  0.252362  1
  Li  Li3  2  0.050148  0.295880  0.427933  1
  Co  Co4  2  0.493997  0.108741  0.703391  1
  Co  Co5  2  0.498254  0.708557  0.905650  1
  Co  Co6  1  0.500000  0.500000  0.500000  1
  O  O7  2  0.241095  0.993410  0.859713  1
  O  O8  2  0.243680  0.359173  0.593871  1
  O  O9  2  0.254564  0.586036  0.052276  1
  O  O10  2  0.254675  0.761002  0.411418  1
  O  O11  2  0.255905  0.167349  0.222109  1
