# generated using pymatgen
data_Li7(CoO3)2
_symmetry_space_group_name_H-M   P-4n2
_cell_length_a   8.74802724
_cell_length_b   8.74802724
_cell_length_c   3.74096914
_cell_angle_alpha   90.00000000
_cell_angle_beta   90.00000000
_cell_angle_gamma   90.00000000
_symmetry_Int_Tables_number   118
_chemical_formula_structural   Li7(CoO3)2
_chemical_formula_sum   'Li14 Co4 O12'
_cell_volume   286.28881384
_cell_formula_units_Z   2
loop_
 _symmetry_equiv_pos_site_id
 _symmetry_equiv_pos_as_xyz
  1  'x, y, z'
  2  'y, -x, -z'
  3  '-x, -y, z'
  4  '-y, x, -z'
  5  'x+1/2, -y+1/2, z+1/2'
  6  'y+1/2, x+1/2, -z+1/2'
  7  '-x+1/2, y+1/2, z+1/2'
  8  '-y+1/2, -x+1/2, -z+1/2'
loop_
 _atom_site_type_symbol
 _atom_site_label
 _atom_site_symmetry_multiplicity
 _atom_site_fract_x
 _atom_site_fract_y
 _atom_site_fract_z
 _atom_site_occupancy
  Li  Li1  8  0.111511  0.174780  0.712023  1
  Li  Li2  4  0.156296  0.343704  0.250000  1
  Li  Li3  2  0.000000  0.000000  0.000000  1
  Co  Co4  4  0.115791  0.615791  0.750000  1
  O  O5  8  0.115171  0.830115  0.779966  1
  O  O6  4  0.101121  0.398879  0.750000  1
