# generated using pymatgen
data_Li8(CoO2)5
_symmetry_space_group_name_H-M   P-1
_cell_length_a   5.34992559
_cell_length_b   6.64719376
_cell_length_c   8.09977759
_cell_angle_alpha   90.45495564
_cell_angle_beta   102.87253636
_cell_angle_gamma   113.36817280
_symmetry_Int_Tables_number   2
_chemical_formula_structural   Li8(CoO2)5
_chemical_formula_sum   'Li8 Co5 O10'
_cell_volume   256.27515633
_cell_formula_units_Z   1
loop_
 _symmetry_equiv_pos_site_id
 _symmetry_equiv_pos_as_xyz
  1  'x, y, z'
  2  '-x, -y, -z'
loop_
 _atom_site_type_symbol
 _atom_site_label
 _atom_site_symmetry_multiplicity
 _atom_site_fract_x
 _atom_site_fract_y
 _atom_site_fract_z
 _atom_site_occupancy
  Li  Li1  2  0.070794  0.509465  0.166968  1
  Li  Li2  2  0.109828  0.677483  0.447199  1
  Li  Li3  2  0.296969  0.860476  0.035291  1
  Li  Li4  2  0.486878  0.041421  0.657409  1
  Co  Co5  2  0.091266  0.099974  0.306540  1
  Co  Co6  2  0.295918  0.299017  0.901686  1
  Co  Co7  1  0.500000  0.500000  0.500000  1
  O  O8  2  0.094633  0.813023  0.225401  1
  O  O9  2  0.123082  0.392604  0.387567  1
  O  O10  2  0.296078  0.023453  0.837490  1
  O  O11  2  0.300183  0.564621  0.001126  1
  O  O12  2  0.476275  0.214306  0.459918  1
