# generated using pymatgen
data_Li8CoO6
_symmetry_space_group_name_H-M   P6_3cm
_cell_length_a   5.55607009
_cell_length_b   5.55607009
_cell_length_c   10.89773252
_cell_angle_alpha   90.00000000
_cell_angle_beta   90.00000000
_cell_angle_gamma   120.00000000
_symmetry_Int_Tables_number   185
_chemical_formula_structural   Li8CoO6
_chemical_formula_sum   'Li16 Co2 O12'
_cell_volume   291.34140299
_cell_formula_units_Z   2
loop_
 _symmetry_equiv_pos_site_id
 _symmetry_equiv_pos_as_xyz
  1  'x, y, z'
  2  'x-y, x, z+1/2'
  3  '-y, x-y, z'
  4  '-x, -y, z+1/2'
  5  '-x+y, -x, z'
  6  'y, -x+y, z+1/2'
  7  'y, x, z'
  8  'x, x-y, z+1/2'
  9  'x-y, -y, z'
  10  '-y, -x, z+1/2'
  11  '-x, -x+y, z'
  12  '-x+y, y, z+1/2'
loop_
 _atom_site_type_symbol
 _atom_site_label
 _atom_site_symmetry_multiplicity
 _atom_site_fract_x
 _atom_site_fract_y
 _atom_site_fract_z
 _atom_site_occupancy
  Li  Li1  6  0.000000  0.312475  0.267740  1
  Li  Li2  6  0.000000  0.388566  0.627416  1
  Li  Li3  4  0.333333  0.666667  0.406993  1
  Co  Co4  2  0.000000  0.000000  0.495992  1
  O  O5  6  0.000000  0.309523  0.449153  1
  O  O6  4  0.333333  0.666667  0.216790  1
  O  O7  2  0.000000  0.000000  0.165520  1
