# generated using pymatgen
data_LiCoO2
_symmetry_space_group_name_H-M   C2/m
_cell_length_a   10.00582928
_cell_length_b   5.84753538
_cell_length_c   5.82922617
_cell_angle_alpha   90.00000000
_cell_angle_beta   125.41087065
_cell_angle_gamma   90.00000000
_symmetry_Int_Tables_number   12
_chemical_formula_structural   LiCoO2
_chemical_formula_sum   'Li8 Co8 O16'
_cell_volume   277.97387884
_cell_formula_units_Z   8
loop_
 _symmetry_equiv_pos_site_id
 _symmetry_equiv_pos_as_xyz
  1  'x, y, z'
  2  '-x, -y, -z'
  3  '-x, y, -z'
  4  'x, -y, z'
  5  'x+1/2, y+1/2, z'
  6  '-x+1/2, -y+1/2, -z'
  7  '-x+1/2, y+1/2, -z'
  8  'x+1/2, -y+1/2, z'
loop_
 _atom_site_type_symbol
 _atom_site_label
 _atom_site_symmetry_multiplicity
 _atom_site_fract_x
 _atom_site_fract_y
 _atom_site_fract_z
 _atom_site_occupancy
  Li  Li1  4  0.250000  0.250000  0.500000  1
  Li  Li2  2  0.000000  0.000000  0.000000  1
  Li  Li3  2  0.000000  0.000000  0.500000  1
  Co  Co4  4  0.250000  0.250000  0.000000  1
  Co  Co5  2  0.000000  0.500000  0.000000  1
  Co  Co6  2  0.000000  0.500000  0.500000  1
  O  O7  8  0.005514  0.267073  0.768103  1
  O  O8  4  0.236586  0.500000  0.746256  1
  O  O9  4  0.240248  0.500000  0.229739  1
