# generated using pymatgen
data_LiCoO2
_symmetry_space_group_name_H-M   P-1
_cell_length_a   4.95337386
_cell_length_b   5.00346307
_cell_length_c   7.57310030
_cell_angle_alpha   108.77149518
_cell_angle_beta   102.85051784
_cell_angle_gamma   99.44978956
_symmetry_Int_Tables_number   2
_chemical_formula_structural   LiCoO2
_chemical_formula_sum   'Li5 Co5 O10'
_cell_volume   167.51178373
_cell_formula_units_Z   5
loop_
 _symmetry_equiv_pos_site_id
 _symmetry_equiv_pos_as_xyz
  1  'x, y, z'
  2  '-x, -y, -z'
loop_
 _atom_site_type_symbol
 _atom_site_label
 _atom_site_symmetry_multiplicity
 _atom_site_fract_x
 _atom_site_fract_y
 _atom_site_fract_z
 _atom_site_occupancy
  Li  Li1  2  0.213037  0.914599  0.414704  1
  Li  Li2  2  0.391901  0.289084  0.779115  1
  Li  Li3  1  0.500000  0.500000  0.500000  1
  Co  Co4  2  0.102544  0.698500  0.694515  1
  Co  Co5  2  0.302626  0.103050  0.101093  1
  Co  Co6  1  0.000000  0.500000  0.000000  1
  O  O7  2  0.037815  0.081056  0.857600  1
  O  O8  2  0.130325  0.323029  0.548411  1
  O  O9  2  0.227509  0.472513  0.230618  1
  O  O10  2  0.347545  0.726382  0.948594  1
  O  O11  2  0.445949  0.890471  0.666357  1
