# generated using pymatgen
data_LiCo8O9
_symmetry_space_group_name_H-M   P-1
_cell_length_a   5.21450714
_cell_length_b   5.21617448
_cell_length_c   6.71394377
_cell_angle_alpha   75.15178937
_cell_angle_beta   83.06063044
_cell_angle_gamma   80.76111152
_symmetry_Int_Tables_number   2
_chemical_formula_structural   LiCo8O9
_chemical_formula_sum   'Li1 Co8 O9'
_cell_volume   173.62130765
_cell_formula_units_Z   1
loop_
 _symmetry_equiv_pos_site_id
 _symmetry_equiv_pos_as_xyz
  1  'x, y, z'
  2  '-x, -y, -z'
loop_
 _atom_site_type_symbol
 _atom_site_label
 _atom_site_symmetry_multiplicity
 _atom_site_fract_x
 _atom_site_fract_y
 _atom_site_fract_z
 _atom_site_occupancy
  Li  Li1  1  0.000000  0.000000  0.000000  1
  Co  Co2  2  0.109243  0.555448  0.781194  1
  Co  Co3  2  0.221749  0.109846  0.556799  1
  Co  Co4  2  0.333661  0.673456  0.327874  1
  Co  Co5  2  0.440460  0.221226  0.108256  1
  O  O6  2  0.112005  0.059429  0.283555  1
  O  O7  2  0.226126  0.602728  0.055954  1
  O  O8  2  0.338572  0.167307  0.829663  1
  O  O9  2  0.443852  0.720288  0.611886  1
  O  O10  1  0.000000  0.500000  0.500000  1
