# generated using pymatgen
data_LiCoO2
_symmetry_space_group_name_H-M   P4/mmm
_cell_length_a   2.99352800
_cell_length_b   2.99352800
_cell_length_c   3.85743303
_cell_angle_alpha   90.00000000
_cell_angle_beta   90.00000000
_cell_angle_gamma   90.00000000
_symmetry_Int_Tables_number   123
_chemical_formula_structural   LiCoO2
_chemical_formula_sum   'Li1 Co1 O2'
_cell_volume   34.56726706
_cell_formula_units_Z   1
loop_
 _symmetry_equiv_pos_site_id
 _symmetry_equiv_pos_as_xyz
  1  'x, y, z'
  2  '-x, -y, -z'
  3  '-y, x, z'
  4  'y, -x, -z'
  5  '-x, -y, z'
  6  'x, y, -z'
  7  'y, -x, z'
  8  '-y, x, -z'
  9  'x, -y, -z'
  10  '-x, y, z'
  11  '-y, -x, -z'
  12  'y, x, z'
  13  '-x, y, -z'
  14  'x, -y, z'
  15  'y, x, -z'
  16  '-y, -x, z'
loop_
 _atom_site_type_symbol
 _atom_site_label
 _atom_site_symmetry_multiplicity
 _atom_site_fract_x
 _atom_site_fract_y
 _atom_site_fract_z
 _atom_site_occupancy
  Li  Li1  1  0.000000  0.000000  0.000000  1
  Co  Co2  1  0.500000  0.500000  0.500000  1
  O  O3  1  0.000000  0.000000  0.500000  1
  O  O4  1  0.500000  0.500000  0.000000  1
