# generated using pymatgen
data_LiCo4O5
_symmetry_space_group_name_H-M   I4/m
_cell_length_a   6.71293257
_cell_length_b   6.71293257
_cell_length_c   4.19012530
_cell_angle_alpha   90.00000000
_cell_angle_beta   90.00000000
_cell_angle_gamma   90.00000000
_symmetry_Int_Tables_number   87
_chemical_formula_structural   LiCo4O5
_chemical_formula_sum   'Li2 Co8 O10'
_cell_volume   188.82155930
_cell_formula_units_Z   2
loop_
 _symmetry_equiv_pos_site_id
 _symmetry_equiv_pos_as_xyz
  1  'x, y, z'
  2  '-x, -y, -z'
  3  'y, -x, z'
  4  '-y, x, -z'
  5  '-x, -y, z'
  6  'x, y, -z'
  7  '-y, x, z'
  8  'y, -x, -z'
  9  'x+1/2, y+1/2, z+1/2'
  10  '-x+1/2, -y+1/2, -z+1/2'
  11  'y+1/2, -x+1/2, z+1/2'
  12  '-y+1/2, x+1/2, -z+1/2'
  13  '-x+1/2, -y+1/2, z+1/2'
  14  'x+1/2, y+1/2, -z+1/2'
  15  '-y+1/2, x+1/2, z+1/2'
  16  'y+1/2, -x+1/2, -z+1/2'
loop_
 _atom_site_type_symbol
 _atom_site_label
 _atom_site_symmetry_multiplicity
 _atom_site_fract_x
 _atom_site_fract_y
 _atom_site_fract_z
 _atom_site_occupancy
  Li  Li1  2  0.000000  0.000000  0.000000  1
  Co  Co2  8  0.098538  0.703589  0.500000  1
  O  O3  8  0.107628  0.691575  0.000000  1
  O  O4  2  0.000000  0.000000  0.500000  1
