# generated using pymatgen
data_LiMn4O8
_symmetry_space_group_name_H-M   C2/m
_cell_length_a   10.35861902
_cell_length_b   5.82220304
_cell_length_c   6.04281494
_cell_angle_alpha   90.00000000
_cell_angle_beta   124.78331737
_cell_angle_gamma   90.00000000
_symmetry_Int_Tables_number   12
_chemical_formula_structural   LiMn4O8
_chemical_formula_sum   'Li2 Mn8 O16'
_cell_volume   299.32186297
_cell_formula_units_Z   2
loop_
 _symmetry_equiv_pos_site_id
 _symmetry_equiv_pos_as_xyz
  1  'x, y, z'
  2  '-x, -y, -z'
  3  '-x, y, -z'
  4  'x, -y, z'
  5  'x+1/2, y+1/2, z'
  6  '-x+1/2, -y+1/2, -z'
  7  '-x+1/2, y+1/2, -z'
  8  'x+1/2, -y+1/2, z'
loop_
 _atom_site_type_symbol
 _atom_site_label
 _atom_site_symmetry_multiplicity
 _atom_site_fract_x
 _atom_site_fract_y
 _atom_site_fract_z
 _atom_site_occupancy
  Li  Li1  2  0.000000  0.500000  0.500000  1
  Mn  Mn2  4  0.250000  0.250000  0.000000  1
  Mn  Mn3  2  0.000000  0.000000  0.000000  1
  Mn  Mn4  2  0.000000  0.500000  0.000000  1
  O  O5  8  0.022740  0.253316  0.806807  1
  O  O6  4  0.229631  0.500000  0.197288  1
  O  O7  4  0.242198  0.500000  0.786367  1
