# generated using pymatgen
data_LiMnO2
_symmetry_space_group_name_H-M   Pmmn
_cell_length_a   2.86877900
_cell_length_b   4.63447456
_cell_length_c   5.83250707
_cell_angle_alpha   90.00000000
_cell_angle_beta   90.00000000
_cell_angle_gamma   90.00000000
_symmetry_Int_Tables_number   59
_chemical_formula_structural   LiMnO2
_chemical_formula_sum   'Li2 Mn2 O4'
_cell_volume   77.54483381
_cell_formula_units_Z   2
loop_
 _symmetry_equiv_pos_site_id
 _symmetry_equiv_pos_as_xyz
  1  'x, y, z'
  2  '-x, -y, z'
  3  'x+1/2, -y+1/2, -z'
  4  '-x+1/2, y+1/2, -z'
  5  '-x+1/2, -y+1/2, -z'
  6  'x+1/2, y+1/2, -z'
  7  '-x, y, z'
  8  'x, -y, z'
loop_
 _atom_site_type_symbol
 _atom_site_label
 _atom_site_symmetry_multiplicity
 _atom_site_fract_x
 _atom_site_fract_y
 _atom_site_fract_z
 _atom_site_occupancy
  Li  Li1  2  0.000000  0.000000  0.620249  1
  Mn  Mn2  2  0.000000  0.000000  0.136748  1
  O  O3  2  0.000000  0.500000  0.098513  1
  O  O4  2  0.000000  0.500000  0.639176  1
