# generated using pymatgen
data_LiMn2O3
_symmetry_space_group_name_H-M   C2/c
_cell_length_a   5.33108418
_cell_length_b   9.14399934
_cell_length_c   10.04298872
_cell_angle_alpha   90.00000000
_cell_angle_beta   99.25454866
_cell_angle_gamma   90.00000000
_symmetry_Int_Tables_number   15
_chemical_formula_structural   LiMn2O3
_chemical_formula_sum   'Li8 Mn16 O24'
_cell_volume   483.19745582
_cell_formula_units_Z   8
loop_
 _symmetry_equiv_pos_site_id
 _symmetry_equiv_pos_as_xyz
  1  'x, y, z'
  2  '-x, -y, -z'
  3  '-x, y, -z+1/2'
  4  'x, -y, z+1/2'
  5  'x+1/2, y+1/2, z'
  6  '-x+1/2, -y+1/2, -z'
  7  '-x+1/2, y+1/2, -z+1/2'
  8  'x+1/2, -y+1/2, z+1/2'
loop_
 _atom_site_type_symbol
 _atom_site_label
 _atom_site_symmetry_multiplicity
 _atom_site_fract_x
 _atom_site_fract_y
 _atom_site_fract_z
 _atom_site_occupancy
  Li  Li1  4  0.000000  0.248450  0.250000  1
  Li  Li2  4  0.000000  0.417534  0.750000  1
  Mn  Mn3  8  0.242797  0.414493  0.500020  1
  Mn  Mn4  4  0.000000  0.080383  0.750000  1
  Mn  Mn5  4  0.250000  0.250000  0.000000  1
  O  O6  8  0.120549  0.078637  0.124195  1
  O  O7  8  0.123763  0.242569  0.623712  1
  O  O8  8  0.137430  0.420211  0.123947  1
