# generated using pymatgen
data_LiMn3O6
_symmetry_space_group_name_H-M   C2/m
_cell_length_a   5.23895121
_cell_length_b   8.68807885
_cell_length_c   5.31351343
_cell_angle_alpha   90.00000000
_cell_angle_beta   110.05419730
_cell_angle_gamma   90.00000000
_symmetry_Int_Tables_number   12
_chemical_formula_structural   LiMn3O6
_chemical_formula_sum   'Li2 Mn6 O12'
_cell_volume   227.18830158
_cell_formula_units_Z   2
loop_
 _symmetry_equiv_pos_site_id
 _symmetry_equiv_pos_as_xyz
  1  'x, y, z'
  2  '-x, -y, -z'
  3  '-x, y, -z'
  4  'x, -y, z'
  5  'x+1/2, y+1/2, z'
  6  '-x+1/2, -y+1/2, -z'
  7  '-x+1/2, y+1/2, -z'
  8  'x+1/2, -y+1/2, z'
loop_
 _atom_site_type_symbol
 _atom_site_label
 _atom_site_symmetry_multiplicity
 _atom_site_fract_x
 _atom_site_fract_y
 _atom_site_fract_z
 _atom_site_occupancy
  Li  Li1  2  0.000000  0.500000  0.000000  1
  Mn  Mn2  4  0.000000  0.333960  0.500000  1
  Mn  Mn3  2  0.000000  0.000000  0.500000  1
  O  O4  8  0.242369  0.164386  0.692397  1
  O  O5  4  0.197203  0.500000  0.717484  1
