# generated using pymatgen
data_LiMn3O6
_symmetry_space_group_name_H-M   Cm
_cell_length_a   13.93225193
_cell_length_b   2.91835604
_cell_length_c   5.02775071
_cell_angle_alpha   90.00000000
_cell_angle_beta   90.48880253
_cell_angle_gamma   90.00000000
_symmetry_Int_Tables_number   8
_chemical_formula_structural   LiMn3O6
_chemical_formula_sum   'Li2 Mn6 O12'
_cell_volume   204.41724226
_cell_formula_units_Z   2
loop_
 _symmetry_equiv_pos_site_id
 _symmetry_equiv_pos_as_xyz
  1  'x, y, z'
  2  'x, -y, z'
  3  'x+1/2, y+1/2, z'
  4  'x+1/2, -y+1/2, z'
loop_
 _atom_site_type_symbol
 _atom_site_label
 _atom_site_symmetry_multiplicity
 _atom_site_fract_x
 _atom_site_fract_y
 _atom_site_fract_z
 _atom_site_occupancy
  Li  Li1  2  0.293752  0.500000  0.928351  1
  Mn  Mn2  2  0.003114  0.000000  0.997046  1
  Mn  Mn3  2  0.154241  0.500000  0.530012  1
  Mn  Mn4  2  0.342906  0.000000  0.454836  1
  O  O5  2  0.074333  0.500000  0.840510  1
  O  O6  2  0.094682  0.000000  0.354092  1
  O  O7  2  0.233828  0.000000  0.702890  1
  O  O8  2  0.267329  0.500000  0.293426  1
  O  O9  2  0.399845  0.500000  0.645776  1
  O  O10  2  0.423140  0.000000  0.139399  1
