# generated using pymatgen
data_LiMn2O4
_symmetry_space_group_name_H-M   P6_3mc
_cell_length_a   5.86603979
_cell_length_b   5.86603979
_cell_length_c   9.76391986
_cell_angle_alpha   90.00000000
_cell_angle_beta   90.00000000
_cell_angle_gamma   120.00000000
_symmetry_Int_Tables_number   186
_chemical_formula_structural   LiMn2O4
_chemical_formula_sum   'Li4 Mn8 O16'
_cell_volume   290.96774363
_cell_formula_units_Z   4
loop_
 _symmetry_equiv_pos_site_id
 _symmetry_equiv_pos_as_xyz
  1  'x, y, z'
  2  'x-y, x, z+1/2'
  3  '-y, x-y, z'
  4  '-x, -y, z+1/2'
  5  '-x+y, -x, z'
  6  'y, -x+y, z+1/2'
  7  'y, x, z+1/2'
  8  'x, x-y, z'
  9  'x-y, -y, z+1/2'
  10  '-y, -x, z'
  11  '-x, -x+y, z+1/2'
  12  '-x+y, y, z'
loop_
 _atom_site_type_symbol
 _atom_site_label
 _atom_site_symmetry_multiplicity
 _atom_site_fract_x
 _atom_site_fract_y
 _atom_site_fract_z
 _atom_site_occupancy
  Li  Li1  2  0.000000  0.000000  0.497357  1
  Li  Li2  2  0.333333  0.666667  0.886736  1
  Mn  Mn3  6  0.168861  0.337722  0.215308  1
  Mn  Mn4  2  0.333333  0.666667  0.493150  1
  O  O5  6  0.033615  0.516807  0.329681  1
  O  O6  6  0.158076  0.316152  0.606834  1
  O  O7  2  0.000000  0.000000  0.311758  1
  O  O8  2  0.333333  0.666667  0.109439  1
