# generated using pymatgen
data_LiMn4O8
_symmetry_space_group_name_H-M   P2_13
_cell_length_a   8.34668352
_cell_length_b   8.34668352
_cell_length_c   8.34668352
_cell_angle_alpha   90.00000000
_cell_angle_beta   90.00000000
_cell_angle_gamma   90.00000000
_symmetry_Int_Tables_number   198
_chemical_formula_structural   LiMn4O8
_chemical_formula_sum   'Li4 Mn16 O32'
_cell_volume   581.48945066
_cell_formula_units_Z   4
loop_
 _symmetry_equiv_pos_site_id
 _symmetry_equiv_pos_as_xyz
  1  'x, y, z'
  2  '-x+1/2, -y, z+1/2'
  3  'x+1/2, -y+1/2, -z'
  4  '-x, y+1/2, -z+1/2'
  5  'z, x, y'
  6  'z+1/2, -x+1/2, -y'
  7  '-z, x+1/2, -y+1/2'
  8  '-z+1/2, -x, y+1/2'
  9  'y, z, x'
  10  '-y, z+1/2, -x+1/2'
  11  '-y+1/2, -z, x+1/2'
  12  'y+1/2, -z+1/2, -x'
loop_
 _atom_site_type_symbol
 _atom_site_label
 _atom_site_symmetry_multiplicity
 _atom_site_fract_x
 _atom_site_fract_y
 _atom_site_fract_z
 _atom_site_occupancy
  Li  Li1  4  0.004851  0.004851  0.004851  1
  Mn  Mn2  12  0.118908  0.128254  0.626342  1
  Mn  Mn3  4  0.123333  0.876667  0.376667  1
  O  O4  12  0.102421  0.118012  0.396260  1
  O  O5  12  0.133323  0.146102  0.860359  1
  O  O6  4  0.114212  0.614212  0.885788  1
  O  O7  4  0.136057  0.363943  0.636057  1
