# generated using pymatgen
data_Li(CoO2)2
_symmetry_space_group_name_H-M   P1
_cell_length_a   8.18372323
_cell_length_b   8.25456218
_cell_length_c   8.26349454
_cell_angle_alpha   89.61033384
_cell_angle_beta   89.75773722
_cell_angle_gamma   89.59911402
_symmetry_Int_Tables_number   1
_chemical_formula_structural   Li(CoO2)2
_chemical_formula_sum   'Li8 Co16 O32'
_cell_volume   558.19282633
_cell_formula_units_Z   8
loop_
 _symmetry_equiv_pos_site_id
 _symmetry_equiv_pos_as_xyz
  1  'x, y, z'
loop_
 _atom_site_type_symbol
 _atom_site_label
 _atom_site_symmetry_multiplicity
 _atom_site_fract_x
 _atom_site_fract_y
 _atom_site_fract_z
 _atom_site_occupancy
  Li  Li1  1  0.248931  0.250768  0.754212  1
  Li  Li2  1  0.252493  0.749107  0.251762  1
  Li  Li3  1  0.495966  0.501395  0.000871  1
  Li  Li4  1  0.500605  0.996427  0.497138  1
  Li  Li5  1  0.749899  0.753319  0.752393  1
  Li  Li6  1  0.751770  0.252012  0.253098  1
  Li  Li7  1  0.997478  0.497493  0.496044  1
  Li  Li8  1  0.998860  0.999678  0.994888  1
  Co  Co9  1  0.122208  0.870236  0.626617  1
  Co  Co10  1  0.126092  0.622949  0.872914  1
  Co  Co11  1  0.127312  0.123334  0.374553  1
  Co  Co12  1  0.132104  0.376233  0.118853  1
  Co  Co13  1  0.372098  0.625902  0.623746  1
  Co  Co14  1  0.373679  0.377131  0.373630  1
  Co  Co15  1  0.374924  0.123810  0.124433  1
  Co  Co16  1  0.378768  0.874639  0.876726  1
  Co  Co17  1  0.619139  0.629575  0.374780  1
  Co  Co18  1  0.619630  0.875177  0.130840  1
  Co  Co19  1  0.625851  0.376403  0.625705  1
  Co  Co20  1  0.626630  0.131270  0.877401  1
  Co  Co21  1  0.874456  0.626275  0.122964  1
  Co  Co22  1  0.876823  0.374509  0.873757  1
  Co  Co23  1  0.877275  0.873676  0.374341  1
  Co  Co24  1  0.878096  0.120737  0.627570  1
  O  O25  1  0.109606  0.103124  0.621163  1
  O  O26  1  0.118506  0.879242  0.399933  1
  O  O27  1  0.121874  0.609079  0.105741  1
  O  O28  1  0.126611  0.396704  0.892138  1
  O  O29  1  0.131797  0.851877  0.856215  1
  O  O30  1  0.136931  0.370946  0.347982  1
  O  O31  1  0.137019  0.637006  0.639023  1
  O  O32  1  0.144739  0.142581  0.128373  1
  O  O33  1  0.353737  0.854525  0.630338  1
  O  O34  1  0.355762  0.630241  0.852011  1
  O  O35  1  0.359694  0.355628  0.128566  1
  O  O36  1  0.365273  0.133230  0.354552  1
  O  O37  1  0.379734  0.112540  0.897445  1
  O  O38  1  0.382715  0.398354  0.617466  1
  O  O39  1  0.390264  0.891534  0.120180  1
  O  O40  1  0.390710  0.626106  0.396462  1
  O  O41  1  0.603464  0.107418  0.124667  1
  O  O42  1  0.606584  0.620161  0.607370  1
  O  O43  1  0.611341  0.402261  0.379189  1
  O  O44  1  0.614313  0.885226  0.899771  1
  O  O45  1  0.626687  0.857217  0.356771  1
  O  O46  1  0.627160  0.644699  0.142269  1
  O  O47  1  0.635702  0.363718  0.870206  1
  O  O48  1  0.647780  0.132357  0.631151  1
  O  O49  1  0.849655  0.870486  0.133235  1
  O  O50  1  0.849825  0.635028  0.364257  1
  O  O51  1  0.868275  0.353254  0.636111  1
  O  O52  1  0.870847  0.133015  0.851872  1
  O  O53  1  0.886626  0.111638  0.396405  1
  O  O54  1  0.895120  0.888907  0.621755  1
  O  O55  1  0.898027  0.619360  0.885489  1
  O  O56  1  0.902541  0.380623  0.112513  1
