# generated using pymatgen
data_Li7Mn5O12
_symmetry_space_group_name_H-M   P-1
_cell_length_a   5.09595886
_cell_length_b   6.47632525
_cell_length_c   6.93546330
_cell_angle_alpha   84.15512249
_cell_angle_beta   79.33167752
_cell_angle_gamma   83.14849227
_symmetry_Int_Tables_number   2
_chemical_formula_structural   Li7Mn5O12
_chemical_formula_sum   'Li7 Mn5 O12'
_cell_volume   222.58175408
_cell_formula_units_Z   1
loop_
 _symmetry_equiv_pos_site_id
 _symmetry_equiv_pos_as_xyz
  1  'x, y, z'
  2  '-x, -y, -z'
loop_
 _atom_site_type_symbol
 _atom_site_label
 _atom_site_symmetry_multiplicity
 _atom_site_fract_x
 _atom_site_fract_y
 _atom_site_fract_z
 _atom_site_occupancy
  Li  Li1  2  0.227953  0.247052  0.725176  1
  Li  Li2  2  0.240499  0.917441  0.076931  1
  Li  Li3  2  0.245194  0.585436  0.419327  1
  Li  Li4  1  0.000000  0.000000  0.500000  1
  Mn  Mn5  2  0.004030  0.327424  0.179968  1
  Mn  Mn6  2  0.499492  0.835589  0.655584  1
  Mn  Mn7  1  0.500000  0.500000  0.000000  1
  O  O8  2  0.136384  0.939889  0.790686  1
  O  O9  2  0.140278  0.605682  0.124220  1
  O  O10  2  0.153819  0.282999  0.453277  1
  O  O11  2  0.360926  0.562012  0.707862  1
  O  O12  2  0.383197  0.212315  0.078292  1
  O  O13  2  0.397539  0.883827  0.397125  1
