# generated using pymatgen
data_Li7Mn5O12
_symmetry_space_group_name_H-M   P2/m
_cell_length_a   5.24072033
_cell_length_b   8.63090123
_cell_length_c   5.29824320
_cell_angle_alpha   90.00000000
_cell_angle_beta   112.77438728
_cell_angle_gamma   90.00000000
_symmetry_Int_Tables_number   10
_chemical_formula_structural   Li7Mn5O12
_chemical_formula_sum   'Li7 Mn5 O12'
_cell_volume   220.96680450
_cell_formula_units_Z   1
loop_
 _symmetry_equiv_pos_site_id
 _symmetry_equiv_pos_as_xyz
  1  'x, y, z'
  2  '-x, -y, -z'
  3  '-x, y, -z'
  4  'x, -y, z'
loop_
 _atom_site_type_symbol
 _atom_site_label
 _atom_site_symmetry_multiplicity
 _atom_site_fract_x
 _atom_site_fract_y
 _atom_site_fract_z
 _atom_site_occupancy
  Li  Li1  2  0.500000  0.161252  0.500000  1
  Li  Li2  2  0.500000  0.331544  0.000000  1
  Li  Li3  1  0.000000  0.000000  0.500000  1
  Li  Li4  1  0.500000  0.000000  0.000000  1
  Li  Li5  1  0.500000  0.500000  0.500000  1
  Mn  Mn6  2  0.000000  0.164889  0.000000  1
  Mn  Mn7  2  0.000000  0.329724  0.500000  1
  Mn  Mn8  1  0.000000  0.500000  0.000000  1
  O  O9  4  0.210911  0.173168  0.762237  1
  O  O10  4  0.235049  0.330625  0.223158  1
  O  O11  2  0.231551  0.500000  0.723079  1
  O  O12  2  0.234824  0.000000  0.219361  1
