# generated using pymatgen
data_Li7Mn5O12
_symmetry_space_group_name_H-M   C2
_cell_length_a   5.15310276
_cell_length_b   8.81034107
_cell_length_c   9.66789182
_cell_angle_alpha   90.00000000
_cell_angle_beta   99.80216382
_cell_angle_gamma   90.00000000
_symmetry_Int_Tables_number   5
_chemical_formula_structural   Li7Mn5O12
_chemical_formula_sum   'Li14 Mn10 O24'
_cell_volume   432.52031671
_cell_formula_units_Z   2
loop_
 _symmetry_equiv_pos_site_id
 _symmetry_equiv_pos_as_xyz
  1  'x, y, z'
  2  '-x, y, -z'
  3  'x+1/2, y+1/2, z'
  4  '-x+1/2, y+1/2, -z'
loop_
 _atom_site_type_symbol
 _atom_site_label
 _atom_site_symmetry_multiplicity
 _atom_site_fract_x
 _atom_site_fract_y
 _atom_site_fract_z
 _atom_site_occupancy
  Li  Li1  4  0.236947  0.084617  0.734440  1
  Li  Li2  4  0.238011  0.413438  0.735485  1
  Li  Li3  2  0.000000  0.257288  0.500000  1
  Li  Li4  2  0.000000  0.744060  0.000000  1
  Li  Li5  2  0.000000  0.921141  0.500000  1
  Mn  Mn6  4  0.248289  0.756322  0.740078  1
  Mn  Mn7  2  0.000000  0.073081  0.000000  1
  Mn  Mn8  2  0.000000  0.414551  0.000000  1
  Mn  Mn9  2  0.000000  0.580600  0.500000  1
  O  O10  4  0.092133  0.251958  0.873595  1
  O  O11  4  0.093835  0.744004  0.369275  1
  O  O12  4  0.123110  0.427227  0.383069  1
  O  O13  4  0.149503  0.570547  0.892614  1
  O  O14  4  0.154991  0.910621  0.878749  1
  O  O15  4  0.155334  0.095906  0.377218  1
