# generated using pymatgen
data_Li9Co7O16
_symmetry_space_group_name_H-M   C2/m
_cell_length_a   11.67096401
_cell_length_b   5.76169594
_cell_length_c   10.10219301
_cell_angle_alpha   90.00000000
_cell_angle_beta   124.84250097
_cell_angle_gamma   90.00000000
_symmetry_Int_Tables_number   12
_chemical_formula_structural   Li9Co7O16
_chemical_formula_sum   'Li18 Co14 O32'
_cell_volume   557.53319204
_cell_formula_units_Z   2
loop_
 _symmetry_equiv_pos_site_id
 _symmetry_equiv_pos_as_xyz
  1  'x, y, z'
  2  '-x, -y, -z'
  3  '-x, y, -z'
  4  'x, -y, z'
  5  'x+1/2, y+1/2, z'
  6  '-x+1/2, -y+1/2, -z'
  7  '-x+1/2, y+1/2, -z'
  8  'x+1/2, -y+1/2, z'
loop_
 _atom_site_type_symbol
 _atom_site_label
 _atom_site_symmetry_multiplicity
 _atom_site_fract_x
 _atom_site_fract_y
 _atom_site_fract_z
 _atom_site_occupancy
  Li  Li1  8  0.245480  0.253092  0.243964  1
  Li  Li2  4  0.249333  0.500000  0.000251  1
  Li  Li3  4  0.249409  0.500000  0.500674  1
  Li  Li4  2  0.000000  0.500000  0.000000  1
  Co  Co5  8  0.000055  0.254993  0.756260  1
  Co  Co6  2  0.000000  0.000000  0.000000  1
  Co  Co7  2  0.000000  0.000000  0.500000  1
  Co  Co8  2  0.000000  0.500000  0.500000  1
  O  O9  8  0.108928  0.246500  0.496572  1
  O  O10  8  0.112411  0.229528  0.992412  1
  O  O11  4  0.107502  0.000000  0.731944  1
  O  O12  4  0.112568  0.500000  0.734135  1
  O  O13  4  0.114076  0.000000  0.234135  1
  O  O14  4  0.117959  0.500000  0.255538  1
