# generated using pymatgen
data_Li9Co7O16
_symmetry_space_group_name_H-M   P-1
_cell_length_a   4.95371020
_cell_length_b   5.80800687
_cell_length_c   9.73957159
_cell_angle_alpha   81.47325864
_cell_angle_beta   85.38402841
_cell_angle_gamma   89.59049662
_symmetry_Int_Tables_number   2
_chemical_formula_structural   Li9Co7O16
_chemical_formula_sum   'Li9 Co7 O16'
_cell_volume   276.21956679
_cell_formula_units_Z   1
loop_
 _symmetry_equiv_pos_site_id
 _symmetry_equiv_pos_as_xyz
  1  'x, y, z'
  2  '-x, -y, -z'
loop_
 _atom_site_type_symbol
 _atom_site_label
 _atom_site_symmetry_multiplicity
 _atom_site_fract_x
 _atom_site_fract_y
 _atom_site_fract_z
 _atom_site_occupancy
  Li  Li1  2  0.128552  0.436643  0.246843  1
  Li  Li2  2  0.130189  0.939414  0.245119  1
  Li  Li3  2  0.373547  0.814151  0.755340  1
  Li  Li4  2  0.376013  0.308388  0.755222  1
  Li  Li5  1  0.500000  0.000000  0.000000  1
  Co  Co6  2  0.000689  0.246052  0.999965  1
  Co  Co7  2  0.249724  0.122675  0.498957  1
  Co  Co8  2  0.250709  0.627206  0.501209  1
  Co  Co9  1  0.500000  0.500000  0.000000  1
  O  O10  2  0.057139  0.341540  0.617155  1
  O  O11  2  0.058735  0.847550  0.621118  1
  O  O12  2  0.154272  0.026240  0.891517  1
  O  O13  2  0.185191  0.525907  0.893218  1
  O  O14  2  0.306502  0.702020  0.107236  1
  O  O15  2  0.308456  0.243750  0.106524  1
  O  O16  2  0.437624  0.908618  0.378273  1
  O  O17  2  0.447830  0.405173  0.381531  1
