# generated using pymatgen
data_Li9Co7O16
_symmetry_space_group_name_H-M   C2/m
_cell_length_a   9.85995902
_cell_length_b   5.79608808
_cell_length_c   9.69787817
_cell_angle_alpha   90.00000000
_cell_angle_beta   100.32083060
_cell_angle_gamma   90.00000000
_symmetry_Int_Tables_number   12
_chemical_formula_structural   Li9Co7O16
_chemical_formula_sum   'Li18 Co14 O32'
_cell_volume   545.25849859
_cell_formula_units_Z   2
loop_
 _symmetry_equiv_pos_site_id
 _symmetry_equiv_pos_as_xyz
  1  'x, y, z'
  2  '-x, -y, -z'
  3  '-x, y, -z'
  4  'x, -y, z'
  5  'x+1/2, y+1/2, z'
  6  '-x+1/2, -y+1/2, -z'
  7  '-x+1/2, y+1/2, -z'
  8  'x+1/2, -y+1/2, z'
loop_
 _atom_site_type_symbol
 _atom_site_label
 _atom_site_symmetry_multiplicity
 _atom_site_fract_x
 _atom_site_fract_y
 _atom_site_fract_z
 _atom_site_occupancy
  Li  Li1  8  0.124008  0.254119  0.246130  1
  Li  Li2  4  0.123355  0.500000  0.755547  1
  Li  Li3  4  0.125441  0.000000  0.755718  1
  Li  Li4  2  0.000000  0.500000  0.000000  1
  Co  Co5  4  0.000000  0.249911  0.500000  1
  Co  Co6  4  0.249856  0.500000  0.499400  1
  Co  Co7  4  0.250000  0.250000  0.000000  1
  Co  Co8  2  0.000000  0.000000  0.000000  1
  O  O9  8  0.067649  0.231643  0.891976  1
  O  O10  8  0.183091  0.250991  0.618244  1
  O  O11  4  0.070208  0.500000  0.382920  1
  O  O12  4  0.071462  0.000000  0.384892  1
  O  O13  4  0.185123  0.000000  0.106696  1
  O  O14  4  0.196507  0.500000  0.105821  1
