# generated using pymatgen
data_Li9Co7O16
_symmetry_space_group_name_H-M   P-1
_cell_length_a   5.68855406
_cell_length_b   6.41098261
_cell_length_c   7.54563128
_cell_angle_alpha   86.10145515
_cell_angle_beta   78.97348323
_cell_angle_gamma   77.16333868
_symmetry_Int_Tables_number   2
_chemical_formula_structural   Li9Co7O16
_chemical_formula_sum   'Li9 Co7 O16'
_cell_volume   263.25901496
_cell_formula_units_Z   1
loop_
 _symmetry_equiv_pos_site_id
 _symmetry_equiv_pos_as_xyz
  1  'x, y, z'
  2  '-x, -y, -z'
loop_
 _atom_site_type_symbol
 _atom_site_label
 _atom_site_symmetry_multiplicity
 _atom_site_fract_x
 _atom_site_fract_y
 _atom_site_fract_z
 _atom_site_occupancy
  Li  Li1  2  0.062307  0.123994  0.625114  1
  Li  Li2  2  0.192423  0.370349  0.875328  1
  Li  Li3  2  0.316294  0.628376  0.124284  1
  Li  Li4  2  0.438137  0.875857  0.371981  1
  Li  Li5  1  0.500000  0.000000  0.000000  1
  Co  Co6  2  0.130435  0.247471  0.245929  1
  Co  Co7  2  0.249916  0.499672  0.499848  1
  Co  Co8  2  0.375389  0.750889  0.753226  1
  Co  Co9  1  0.000000  0.000000  0.000000  1
  O  O10  2  0.032993  0.541451  0.326290  1
  O  O11  2  0.089614  0.706237  0.926788  1
  O  O12  2  0.157448  0.791756  0.577136  1
  O  O13  2  0.199383  0.956313  0.179227  1
  O  O14  2  0.266614  0.043857  0.820425  1
  O  O15  2  0.343620  0.203842  0.422167  1
  O  O16  2  0.402187  0.309498  0.083362  1
  O  O17  2  0.465694  0.455614  0.673977  1
