# generated using pymatgen
data_Li9Co7O16
_symmetry_space_group_name_H-M   C2/m
_cell_length_a   10.12179902
_cell_length_b   11.59428378
_cell_length_c   5.10461423
_cell_angle_alpha   90.00000000
_cell_angle_beta   109.98882285
_cell_angle_gamma   90.00000000
_symmetry_Int_Tables_number   12
_chemical_formula_structural   Li9Co7O16
_chemical_formula_sum   'Li18 Co14 O32'
_cell_volume   562.96475378
_cell_formula_units_Z   2
loop_
 _symmetry_equiv_pos_site_id
 _symmetry_equiv_pos_as_xyz
  1  'x, y, z'
  2  '-x, -y, -z'
  3  '-x, y, -z'
  4  'x, -y, z'
  5  'x+1/2, y+1/2, z'
  6  '-x+1/2, -y+1/2, -z'
  7  '-x+1/2, y+1/2, -z'
  8  'x+1/2, -y+1/2, z'
loop_
 _atom_site_type_symbol
 _atom_site_label
 _atom_site_symmetry_multiplicity
 _atom_site_fract_x
 _atom_site_fract_y
 _atom_site_fract_z
 _atom_site_occupancy
  Li  Li1  4  0.000000  0.125518  0.500000  1
  Li  Li2  4  0.000000  0.378444  0.500000  1
  Li  Li3  4  0.246233  0.500000  0.491006  1
  Li  Li4  4  0.250000  0.250000  0.500000  1
  Li  Li5  2  0.000000  0.500000  0.000000  1
  Co  Co6  8  0.245959  0.376439  0.999931  1
  Co  Co7  4  0.000000  0.251818  0.000000  1
  Co  Co8  2  0.000000  0.000000  0.000000  1
  O  O9  8  0.115389  0.131811  0.222068  1
  O  O10  8  0.119557  0.362761  0.225157  1
  O  O11  8  0.121567  0.248065  0.780751  1
  O  O12  4  0.125465  0.000000  0.763638  1
  O  O13  4  0.139999  0.500000  0.764659  1
