# generated using pymatgen
data_Li9Co7O16
_symmetry_space_group_name_H-M   C2/m
_cell_length_a   11.74434297
_cell_length_b   5.83167145
_cell_length_c   8.29431186
_cell_angle_alpha   90.00000000
_cell_angle_beta   90.67084640
_cell_angle_gamma   90.00000000
_symmetry_Int_Tables_number   12
_chemical_formula_structural   Li9Co7O16
_chemical_formula_sum   'Li18 Co14 O32'
_cell_volume   568.03142808
_cell_formula_units_Z   2
loop_
 _symmetry_equiv_pos_site_id
 _symmetry_equiv_pos_as_xyz
  1  'x, y, z'
  2  '-x, -y, -z'
  3  '-x, y, -z'
  4  'x, -y, z'
  5  'x+1/2, y+1/2, z'
  6  '-x+1/2, -y+1/2, -z'
  7  '-x+1/2, y+1/2, -z'
  8  'x+1/2, -y+1/2, z'
loop_
 _atom_site_type_symbol
 _atom_site_label
 _atom_site_symmetry_multiplicity
 _atom_site_fract_x
 _atom_site_fract_y
 _atom_site_fract_z
 _atom_site_occupancy
  Li  Li1  8  0.124108  0.253325  0.753178  1
  Li  Li2  4  0.249289  0.500000  0.999824  1
  Li  Li3  2  0.000000  0.000000  0.500000  1
  Li  Li4  2  0.000000  0.500000  0.000000  1
  Li  Li5  2  0.000000  0.500000  0.500000  1
  Co  Co6  8  0.121042  0.255297  0.244499  1
  Co  Co7  4  0.249848  0.000000  0.500371  1
  Co  Co8  2  0.000000  0.000000  0.000000  1
  O  O9  8  0.115767  0.227908  0.008992  1
  O  O10  8  0.132194  0.248717  0.493506  1
  O  O11  4  0.003111  0.000000  0.233018  1
  O  O12  4  0.010012  0.500000  0.254450  1
  O  O13  4  0.242019  0.000000  0.256832  1
  O  O14  4  0.243840  0.500000  0.256705  1
