# generated using pymatgen
data_Li9Mn20O40
_symmetry_space_group_name_H-M   P1
_cell_length_a   8.76458720
_cell_length_b   10.18147045
_cell_length_c   10.20041991
_cell_angle_alpha   79.32315543
_cell_angle_beta   64.56382604
_cell_angle_gamma   64.75101034
_symmetry_Int_Tables_number   1
_chemical_formula_structural   Li9Mn20O40
_chemical_formula_sum   'Li9 Mn20 O40'
_cell_volume   743.47771912
_cell_formula_units_Z   1
loop_
 _symmetry_equiv_pos_site_id
 _symmetry_equiv_pos_as_xyz
  1  'x, y, z'
loop_
 _atom_site_type_symbol
 _atom_site_label
 _atom_site_symmetry_multiplicity
 _atom_site_fract_x
 _atom_site_fract_y
 _atom_site_fract_z
 _atom_site_occupancy
  Li  Li1  1  0.178364  0.352756  0.050089  1
  Li  Li2  1  0.214947  0.455032  0.349687  1
  Li  Li3  1  0.379263  0.751871  0.251766  1
  Li  Li4  1  0.425709  0.846190  0.551227  1
  Li  Li5  1  0.574288  0.150781  0.447564  1
  Li  Li6  1  0.625017  0.251923  0.747526  1
  Li  Li7  1  0.785684  0.548747  0.647364  1
  Li  Li8  1  0.816323  0.645215  0.950099  1
  Li  Li9  1  0.974169  0.952659  0.852804  1
  Mn  Mn10  1  0.006482  0.999709  0.500418  1
  Mn  Mn11  1  0.095436  0.698300  0.599673  1
  Mn  Mn12  1  0.096262  0.707291  0.098194  1
  Mn  Mn13  1  0.105973  0.199840  0.601976  1
  Mn  Mn14  1  0.192900  0.403216  0.702138  1
  Mn  Mn15  1  0.299118  0.602528  0.798252  1
  Mn  Mn16  1  0.303115  0.102146  0.800584  1
  Mn  Mn17  1  0.304498  0.101677  0.306404  1
  Mn  Mn18  1  0.411955  0.797958  0.898662  1
  Mn  Mn19  1  0.497614  0.498279  0.498268  1
  Mn  Mn20  1  0.498084  0.502775  0.999825  1
  Mn  Mn21  1  0.505048  0.000133  0.998096  1
  Mn  Mn22  1  0.589457  0.206138  0.100096  1
  Mn  Mn23  1  0.693842  0.896333  0.200125  1
  Mn  Mn24  1  0.697821  0.396237  0.201909  1
  Mn  Mn25  1  0.704595  0.899951  0.697142  1
  Mn  Mn26  1  0.797517  0.598519  0.298296  1
  Mn  Mn27  1  0.894014  0.802927  0.397657  1
  Mn  Mn28  1  0.895927  0.296606  0.901506  1
  Mn  Mn29  1  0.907922  0.303048  0.398233  1
  O  O30  1  0.017566  0.617540  0.291846  1
  O  O31  1  0.049559  0.116872  0.792607  1
  O  O32  1  0.057449  0.594373  0.782975  1
  O  O33  1  0.078577  0.105621  0.317737  1
  O  O34  1  0.135062  0.803431  0.419264  1
  O  O35  1  0.157744  0.297846  0.881970  1
  O  O36  1  0.165814  0.280140  0.409028  1
  O  O37  1  0.187768  0.791961  0.900504  1
  O  O38  1  0.229930  0.508321  0.519235  1
  O  O39  1  0.250693  0.019716  0.497335  1
  O  O40  1  0.267161  0.520703  0.993695  1
  O  O41  1  0.295926  0.991791  0.981954  1
  O  O42  1  0.320124  0.207907  0.616559  1
  O  O43  1  0.323714  0.687892  0.605836  1
  O  O44  1  0.366731  0.696249  0.079408  1
  O  O45  1  0.371318  0.184446  0.108332  1
  O  O46  1  0.415903  0.413728  0.694937  1
  O  O47  1  0.456285  0.397187  0.180593  1
  O  O48  1  0.459863  0.918326  0.194900  1
  O  O49  1  0.469433  0.901468  0.713134  1
  O  O50  1  0.541395  0.606015  0.817210  1
  O  O51  1  0.544404  0.094383  0.283228  1
  O  O52  1  0.565405  0.077756  0.804355  1
  O  O53  1  0.577249  0.585830  0.304392  1
  O  O54  1  0.626219  0.309350  0.921830  1
  O  O55  1  0.632820  0.813875  0.892982  1
  O  O56  1  0.649423  0.316104  0.396284  1
  O  O57  1  0.656815  0.792877  0.378586  1
  O  O58  1  0.717459  0.006916  0.016856  1
  O  O59  1  0.729318  0.482749  0.005451  1
  O  O60  1  0.757369  0.983083  0.508778  1
  O  O61  1  0.759594  0.498474  0.480237  1
  O  O62  1  0.805427  0.213973  0.095589  1
  O  O63  1  0.831714  0.707295  0.115642  1
  O  O64  1  0.864297  0.714798  0.594415  1
  O  O65  1  0.889359  0.196864  0.587220  1
  O  O66  1  0.916628  0.886924  0.202685  1
  O  O67  1  0.935092  0.408908  0.213864  1
  O  O68  1  0.937759  0.892086  0.687852  1
  O  O69  1  0.975911  0.384857  0.704641  1
