# generated using pymatgen
data_Li9Mn7O16
_symmetry_space_group_name_H-M   P-1
_cell_length_a   5.09681848
_cell_length_b   6.48079836
_cell_length_c   9.38756404
_cell_angle_alpha   97.78928880
_cell_angle_beta   99.52807097
_cell_angle_gamma   96.65895728
_symmetry_Int_Tables_number   2
_chemical_formula_structural   Li9Mn7O16
_chemical_formula_sum   'Li9 Mn7 O16'
_cell_volume   299.93104153
_cell_formula_units_Z   1
loop_
 _symmetry_equiv_pos_site_id
 _symmetry_equiv_pos_as_xyz
  1  'x, y, z'
  2  '-x, -y, -z'
loop_
 _atom_site_type_symbol
 _atom_site_label
 _atom_site_symmetry_multiplicity
 _atom_site_fract_x
 _atom_site_fract_y
 _atom_site_fract_z
 _atom_site_occupancy
  Li  Li1  2  0.252803  0.310222  0.690439  1
  Li  Li2  2  0.255096  0.064820  0.940267  1
  Li  Li3  2  0.264982  0.562203  0.418160  1
  Li  Li4  2  0.266292  0.805130  0.174597  1
  Li  Li5  1  0.500000  0.500000  0.000000  1
  Mn  Mn6  2  0.002458  0.374441  0.114021  1
  Mn  Mn7  2  0.007528  0.125761  0.370531  1
  Mn  Mn8  2  0.490817  0.747371  0.764647  1
  Mn  Mn9  1  0.500000  0.000000  0.500000  1
  O  O10  2  0.103994  0.358762  0.923502  1
  O  O11  2  0.112373  0.606600  0.686464  1
  O  O12  2  0.137879  0.859684  0.408449  1
  O  O13  2  0.144110  0.116215  0.152754  1
  O  O14  2  0.344321  0.771772  0.967192  1
  O  O15  2  0.354178  0.010915  0.720910  1
  O  O16  2  0.363552  0.265733  0.470668  1
  O  O17  2  0.368038  0.512066  0.215656  1
