# generated using pymatgen
data_Li9Mn7O16
_symmetry_space_group_name_H-M   P-1
_cell_length_a   5.04986954
_cell_length_b   6.06008165
_cell_length_c   9.79691280
_cell_angle_alpha   84.05038704
_cell_angle_beta   86.24725279
_cell_angle_gamma   86.97309753
_symmetry_Int_Tables_number   2
_chemical_formula_structural   Li9Mn7O16
_chemical_formula_sum   'Li9 Mn7 O16'
_cell_volume   297.23680567
_cell_formula_units_Z   1
loop_
 _symmetry_equiv_pos_site_id
 _symmetry_equiv_pos_as_xyz
  1  'x, y, z'
  2  '-x, -y, -z'
loop_
 _atom_site_type_symbol
 _atom_site_label
 _atom_site_symmetry_multiplicity
 _atom_site_fract_x
 _atom_site_fract_y
 _atom_site_fract_z
 _atom_site_occupancy
  Li  Li1  2  0.129061  0.933954  0.248000  1
  Li  Li2  2  0.129964  0.440817  0.246642  1
  Li  Li3  2  0.378164  0.307623  0.753360  1
  Li  Li4  2  0.378765  0.817522  0.755524  1
  Li  Li5  1  0.500000  0.000000  0.000000  1
  Mn  Mn6  2  0.000683  0.758833  0.999348  1
  Mn  Mn7  2  0.249837  0.125126  0.500019  1
  Mn  Mn8  2  0.249959  0.624642  0.500363  1
  Mn  Mn9  1  0.500000  0.500000  0.000000  1
  O  O10  2  0.052302  0.829372  0.616949  1
  O  O11  2  0.053625  0.329819  0.616772  1
  O  O12  2  0.161628  0.028995  0.884417  1
  O  O13  2  0.192874  0.534499  0.888945  1
  O  O14  2  0.307380  0.707421  0.113197  1
  O  O15  2  0.316125  0.250279  0.105187  1
  O  O16  2  0.447137  0.921723  0.381465  1
  O  O17  2  0.447370  0.420388  0.383299  1
