# generated using pymatgen
data_Li9Mn21O40
_symmetry_space_group_name_H-M   P1
_cell_length_a   6.04945081
_cell_length_b   6.05085689
_cell_length_c   21.07935256
_cell_angle_alpha   97.69319726
_cell_angle_beta   97.35358014
_cell_angle_gamma   93.93371486
_symmetry_Int_Tables_number   1
_chemical_formula_structural   Li9Mn21O40
_chemical_formula_sum   'Li9 Mn21 O40'
_cell_volume   755.47115586
_cell_formula_units_Z   1
loop_
 _symmetry_equiv_pos_site_id
 _symmetry_equiv_pos_as_xyz
  1  'x, y, z'
loop_
 _atom_site_type_symbol
 _atom_site_label
 _atom_site_symmetry_multiplicity
 _atom_site_fract_x
 _atom_site_fract_y
 _atom_site_fract_z
 _atom_site_occupancy
  Li  Li1  1  0.064422  0.837323  0.650199  1
  Li  Li2  1  0.135797  0.362446  0.749584  1
  Li  Li3  1  0.270770  0.030133  0.048535  1
  Li  Li4  1  0.466088  0.231636  0.451853  1
  Li  Li5  1  0.538912  0.764454  0.550757  1
  Li  Li6  1  0.661501  0.436564  0.848757  1
  Li  Li7  1  0.735192  0.963328  0.947923  1
  Li  Li8  1  0.881591  0.616781  0.252743  1
  Li  Li9  1  0.926398  0.175027  0.351588  1
  Mn  Mn10  1  0.000257  0.000643  0.499893  1
  Mn  Mn11  1  0.001049  0.500320  0.501655  1
  Mn  Mn12  1  0.093992  0.100832  0.201685  1
  Mn  Mn13  1  0.198717  0.698730  0.897761  1
  Mn  Mn14  1  0.201080  0.198991  0.898554  1
  Mn  Mn15  1  0.205893  0.695024  0.403109  1
  Mn  Mn16  1  0.300315  0.299279  0.600361  1
  Mn  Mn17  1  0.321378  0.584669  0.149633  1
  Mn  Mn18  1  0.393931  0.403663  0.302250  1
  Mn  Mn19  1  0.396164  0.908051  0.304312  1
  Mn  Mn20  1  0.399587  0.898608  0.798957  1
  Mn  Mn21  1  0.498715  0.504611  0.998114  1
  Mn  Mn22  1  0.599419  0.099470  0.699796  1
  Mn  Mn23  1  0.599783  0.599971  0.699622  1
  Mn  Mn24  1  0.603357  0.107149  0.200973  1
  Mn  Mn25  1  0.705647  0.691926  0.400080  1
  Mn  Mn26  1  0.800130  0.299449  0.600458  1
  Mn  Mn27  1  0.802488  0.289989  0.096610  1
  Mn  Mn28  1  0.807153  0.801273  0.100529  1
  Mn  Mn29  1  0.900065  0.899521  0.799083  1
  Mn  Mn30  1  0.994018  0.499196  0.995506  1
  O  O31  1  0.028937  0.529251  0.090015  1
  O  O32  1  0.030502  0.534152  0.594829  1
  O  O33  1  0.033002  0.087034  0.595235  1
  O  O34  1  0.044708  0.038428  0.108718  1
  O  O35  1  0.158800  0.164902  0.294977  1
  O  O36  1  0.167270  0.111241  0.803676  1
  O  O37  1  0.168719  0.665108  0.804137  1
  O  O38  1  0.186445  0.642842  0.308036  1
  O  O39  1  0.213644  0.266996  0.505710  1
  O  O40  1  0.227152  0.732981  0.990996  1
  O  O41  1  0.231782  0.288057  0.993174  1
  O  O42  1  0.234959  0.732223  0.495746  1
  O  O43  1  0.338423  0.342673  0.208427  1
  O  O44  1  0.340692  0.892237  0.207531  1
  O  O45  1  0.367056  0.867620  0.705080  1
  O  O46  1  0.386483  0.332233  0.694805  1
  O  O47  1  0.411736  0.466581  0.902811  1
  O  O48  1  0.432161  0.929645  0.892375  1
  O  O49  1  0.435994  0.479327  0.396757  1
  O  O50  1  0.436365  0.928048  0.397685  1
  O  O51  1  0.567245  0.512026  0.604801  1
  O  O52  1  0.569878  0.559579  0.094049  1
  O  O53  1  0.569878  0.066101  0.605882  1
  O  O54  1  0.571601  0.063482  0.106642  1
  O  O55  1  0.606557  0.168563  0.297952  1
  O  O56  1  0.629663  0.132808  0.793265  1
  O  O57  1  0.631294  0.638430  0.306450  1
  O  O58  1  0.632679  0.686357  0.794063  1
  O  O59  1  0.761641  0.268096  0.001225  1
  O  O60  1  0.766476  0.714306  0.002899  1
  O  O61  1  0.768716  0.268418  0.506437  1
  O  O62  1  0.788326  0.733842  0.495164  1
  O  O63  1  0.812876  0.867545  0.704427  1
  O  O64  1  0.832490  0.331551  0.693931  1
  O  O65  1  0.861814  0.864769  0.197486  1
  O  O66  1  0.864768  0.312604  0.195450  1
  O  O67  1  0.965073  0.467228  0.902601  1
  O  O68  1  0.972928  0.908887  0.404318  1
  O  O69  1  0.973810  0.465181  0.408535  1
  O  O70  1  0.986425  0.932058  0.893456  1
