# generated using pymatgen
data_Li9Mn14O32
_symmetry_space_group_name_H-M   Cm
_cell_length_a   10.17357044
_cell_length_b   5.86524302
_cell_length_c   19.43612177
_cell_angle_alpha   90.00000000
_cell_angle_beta   100.26373492
_cell_angle_gamma   90.00000000
_symmetry_Int_Tables_number   8
_chemical_formula_structural   Li9Mn14O32
_chemical_formula_sum   'Li18 Mn28 O64'
_cell_volume   1141.20388197
_cell_formula_units_Z   2
loop_
 _symmetry_equiv_pos_site_id
 _symmetry_equiv_pos_as_xyz
  1  'x, y, z'
  2  'x, -y, z'
  3  'x+1/2, y+1/2, z'
  4  'x+1/2, -y+1/2, z'
loop_
 _atom_site_type_symbol
 _atom_site_label
 _atom_site_symmetry_multiplicity
 _atom_site_fract_x
 _atom_site_fract_y
 _atom_site_fract_z
 _atom_site_occupancy
  Li  Li1  2  0.094802  0.000000  0.785110  1
  Li  Li2  2  0.100934  0.500000  0.282711  1
  Li  Li3  2  0.124938  0.000000  0.375362  1
  Li  Li4  2  0.148372  0.500000  0.466329  1
  Li  Li5  2  0.156204  0.000000  0.967650  1
  Li  Li6  2  0.250053  0.500000  0.749586  1
  Li  Li7  2  0.346011  0.000000  0.528191  1
  Li  Li8  2  0.404833  0.000000  0.714405  1
  Li  Li9  2  0.405264  0.500000  0.222632  1
  Mn  Mn10  4  0.125138  0.250157  0.124948  1
  Mn  Mn11  4  0.126148  0.746921  0.625448  1
  Mn  Mn12  4  0.373210  0.254385  0.874319  1
  Mn  Mn13  4  0.375222  0.250059  0.375389  1
  Mn  Mn14  2  0.000228  0.000000  0.497561  1
  Mn  Mn15  2  0.000406  0.500000  0.000638  1
  Mn  Mn16  2  0.127615  0.500000  0.874404  1
  Mn  Mn17  2  0.249812  0.000000  0.253375  1
  Mn  Mn18  2  0.373656  0.500000  0.625743  1
  Mn  Mn19  2  0.374285  0.000000  0.124529  1
  O  O20  4  0.043536  0.228678  0.439219  1
  O  O21  4  0.051748  0.279493  0.934879  1
  O  O22  4  0.197123  0.730526  0.822824  1
  O  O23  4  0.206610  0.228138  0.310904  1
  O  O24  4  0.302131  0.223033  0.182492  1
  O  O25  4  0.302219  0.269671  0.677246  1
  O  O26  4  0.447930  0.279349  0.566801  1
  O  O27  4  0.449675  0.219448  0.065935  1
  O  O28  2  0.059417  0.500000  0.178816  1
  O  O29  2  0.060120  0.000000  0.677808  1
  O  O30  2  0.073082  0.500000  0.677195  1
  O  O31  2  0.080021  0.000000  0.185164  1
  O  O32  2  0.167893  0.500000  0.065328  1
  O  O33  2  0.168914  0.000000  0.565111  1
  O  O34  2  0.188819  0.000000  0.070401  1
  O  O35  2  0.190826  0.500000  0.572172  1
  O  O36  2  0.309337  0.500000  0.926966  1
  O  O37  2  0.319141  0.000000  0.426930  1
  O  O38  2  0.326934  0.500000  0.434399  1
  O  O39  2  0.331201  0.000000  0.934769  1
  O  O40  2  0.422780  0.000000  0.315859  1
  O  O41  2  0.427820  0.500000  0.822838  1
  O  O42  2  0.430725  0.500000  0.323557  1
  O  O43  2  0.440426  0.000000  0.822401  1
