# generated using pymatgen
data_LiMn2O4
_symmetry_space_group_name_H-M   P1
_cell_length_a   8.70631317
_cell_length_b   13.10418449
_cell_length_c   13.20090473
_cell_angle_alpha   83.67152175
_cell_angle_beta   70.76451290
_cell_angle_gamma   70.60259348
_symmetry_Int_Tables_number   1
_chemical_formula_structural   LiMn2O4
_chemical_formula_sum   'Li18 Mn36 O72'
_cell_volume   1341.28261115
_cell_formula_units_Z   18
loop_
 _symmetry_equiv_pos_site_id
 _symmetry_equiv_pos_as_xyz
  1  'x, y, z'
loop_
 _atom_site_type_symbol
 _atom_site_label
 _atom_site_symmetry_multiplicity
 _atom_site_fract_x
 _atom_site_fract_y
 _atom_site_fract_z
 _atom_site_occupancy
  Li  Li1  1  0.119053  0.584180  0.413942  1
  Li  Li2  1  0.119649  0.917628  0.085232  1
  Li  Li3  1  0.126505  0.249722  0.750503  1
  Li  Li4  1  0.201480  0.417058  0.913919  1
  Li  Li5  1  0.204731  0.086817  0.250847  1
  Li  Li6  1  0.209608  0.750378  0.580866  1
  Li  Li7  1  0.456441  0.586763  0.750719  1
  Li  Li8  1  0.457607  0.250474  0.079537  1
  Li  Li9  1  0.467342  0.917264  0.414706  1
  Li  Li10  1  0.531036  0.083714  0.586403  1
  Li  Li11  1  0.539085  0.749444  0.918831  1
  Li  Li12  1  0.543306  0.414070  0.249803  1
  Li  Li13  1  0.791613  0.249805  0.419766  1
  Li  Li14  1  0.792480  0.914345  0.749638  1
  Li  Li15  1  0.797801  0.583598  0.085879  1
  Li  Li16  1  0.872206  0.749038  0.251240  1
  Li  Li17  1  0.876929  0.416552  0.586381  1
  Li  Li18  1  0.881856  0.084356  0.913074  1
  Mn  Mn19  1  0.006176  0.331141  0.164714  1
  Mn  Mn20  1  0.158798  0.665963  0.004065  1
  Mn  Mn21  1  0.160938  0.331172  0.335963  1
  Mn  Mn22  1  0.162769  0.165946  0.995545  1
  Mn  Mn23  1  0.163269  0.497803  0.164537  1
  Mn  Mn24  1  0.163871  0.834265  0.330874  1
  Mn  Mn25  1  0.164114  0.502509  0.667157  1
  Mn  Mn26  1  0.169665  0.831325  0.834868  1
  Mn  Mn27  1  0.170257  0.165694  0.505223  1
  Mn  Mn28  1  0.171617  0.997689  0.665575  1
  Mn  Mn29  1  0.326884  0.667871  0.168306  1
  Mn  Mn30  1  0.327131  0.333318  0.504681  1
  Mn  Mn31  1  0.328571  0.997741  0.834663  1
  Mn  Mn32  1  0.491444  0.168907  0.830594  1
  Mn  Mn33  1  0.491976  0.333764  0.669456  1
  Mn  Mn34  1  0.497874  0.000479  0.998797  1
  Mn  Mn35  1  0.498084  0.830724  0.666348  1
  Mn  Mn36  1  0.498240  0.169295  0.333525  1
  Mn  Mn37  1  0.499167  0.499422  0.000568  1
  Mn  Mn38  1  0.502120  0.500173  0.499608  1
  Mn  Mn39  1  0.505483  0.833388  0.169124  1
  Mn  Mn40  1  0.508492  0.668103  0.330705  1
  Mn  Mn41  1  0.666334  0.002693  0.166253  1
  Mn  Mn42  1  0.668886  0.334255  0.831153  1
  Mn  Mn43  1  0.674099  0.665623  0.497190  1
  Mn  Mn44  1  0.826689  0.002180  0.334383  1
  Mn  Mn45  1  0.827799  0.835145  0.496825  1
  Mn  Mn46  1  0.832519  0.168791  0.165718  1
  Mn  Mn47  1  0.833234  0.668860  0.666031  1
  Mn  Mn48  1  0.833953  0.833739  0.003186  1
  Mn  Mn49  1  0.835277  0.501977  0.833955  1
  Mn  Mn50  1  0.835404  0.167863  0.668383  1
  Mn  Mn51  1  0.839004  0.497767  0.335784  1
  Mn  Mn52  1  0.841327  0.334511  0.994780  1
  Mn  Mn53  1  0.996717  0.669114  0.834032  1
  Mn  Mn54  1  0.999566  0.999721  0.500734  1
  O  O55  1  0.053935  0.993908  0.340963  1
  O  O56  1  0.055206  0.840953  0.490048  1
  O  O57  1  0.063241  0.510628  0.824017  1
  O  O58  1  0.064031  0.823805  0.000962  1
  O  O59  1  0.068035  0.322374  0.996167  1
  O  O60  1  0.076085  0.488945  0.322870  1
  O  O61  1  0.085247  0.655452  0.673868  1
  O  O62  1  0.086969  0.176366  0.150165  1
  O  O63  1  0.089206  0.654791  0.158050  1
  O  O64  1  0.097187  0.154481  0.658652  1
  O  O65  1  0.110025  0.322661  0.506273  1
  O  O66  1  0.111702  0.989124  0.823692  1
  O  O67  1  0.233207  0.343475  0.167114  1
  O  O68  1  0.233835  0.510107  0.010489  1
  O  O69  1  0.235039  0.676308  0.849338  1
  O  O70  1  0.236988  0.176432  0.350378  1
  O  O71  1  0.243764  0.009312  0.511130  1
  O  O72  1  0.244684  0.843525  0.672149  1
  O  O73  1  0.245010  0.152968  0.842160  1
  O  O74  1  0.246174  0.009272  0.989101  1
  O  O75  1  0.246375  0.489357  0.513064  1
  O  O76  1  0.253220  0.677244  0.322225  1
  O  O77  1  0.263978  0.342705  0.661505  1
  O  O78  1  0.279127  0.831162  0.171978  1
  O  O79  1  0.386210  0.659412  0.011607  1
  O  O80  1  0.388626  0.503881  0.158808  1
  O  O81  1  0.395159  0.175756  0.496027  1
  O  O82  1  0.396997  0.989313  0.676960  1
  O  O83  1  0.397662  0.159363  0.988120  1
  O  O84  1  0.399342  0.493429  0.659708  1
  O  O85  1  0.400403  0.326217  0.349283  1
  O  O86  1  0.409435  0.842721  0.827870  1
  O  O87  1  0.424597  0.328588  0.822486  1
  O  O88  1  0.426287  0.827265  0.322009  1
  O  O89  1  0.448356  0.993169  0.159108  1
  O  O90  1  0.453884  0.658879  0.489089  1
  O  O91  1  0.547517  0.005968  0.840400  1
  O  O92  1  0.549457  0.340805  0.510798  1
  O  O93  1  0.571548  0.178846  0.675167  1
  O  O94  1  0.572913  0.678283  0.174744  1
  O  O95  1  0.585337  0.156106  0.172942  1
  O  O96  1  0.587109  0.675213  0.651721  1
  O  O97  1  0.598731  0.840904  0.010844  1
  O  O98  1  0.600506  0.011267  0.323566  1
  O  O99  1  0.605750  0.505563  0.340969  1
  O  O100  1  0.606477  0.823584  0.503146  1
  O  O101  1  0.608976  0.494309  0.841178  1
  O  O102  1  0.612158  0.340837  0.990175  1
  O  O103  1  0.717876  0.330610  0.672139  1
  O  O104  1  0.733035  0.842960  0.160641  1
  O  O105  1  0.744423  0.176981  0.822454  1
  O  O106  1  0.751443  0.989835  0.012251  1
  O  O107  1  0.754635  0.991694  0.488822  1
  O  O108  1  0.755315  0.509518  0.489906  1
  O  O109  1  0.756269  0.158219  0.323648  1
  O  O110  1  0.756857  0.825859  0.651605  1
  O  O111  1  0.758629  0.653187  0.343364  1
  O  O112  1  0.760879  0.657332  0.824406  1
  O  O113  1  0.764673  0.490791  0.988225  1
  O  O114  1  0.772806  0.326763  0.151414  1
  O  O115  1  0.885147  0.007949  0.176633  1
  O  O116  1  0.889442  0.676392  0.505439  1
  O  O117  1  0.899939  0.846913  0.341646  1
  O  O118  1  0.908235  0.346234  0.840096  1
  O  O119  1  0.916472  0.825706  0.849494  1
  O  O120  1  0.922585  0.343176  0.333462  1
  O  O121  1  0.927808  0.175700  0.005346  1
  O  O122  1  0.929645  0.508114  0.676498  1
  O  O123  1  0.932439  0.676130  0.995970  1
  O  O124  1  0.934272  0.489286  0.177658  1
  O  O125  1  0.942105  0.159247  0.511506  1
  O  O126  1  0.945539  0.005251  0.659310  1
