# generated using pymatgen
data_LiMn28O56
_symmetry_space_group_name_H-M   R3
_cell_length_a   15.42770747
_cell_length_b   15.42770747
_cell_length_c   14.28382128
_cell_angle_alpha   90.00000000
_cell_angle_beta   90.00000000
_cell_angle_gamma   120.00000000
_symmetry_Int_Tables_number   146
_chemical_formula_structural   LiMn28O56
_chemical_formula_sum   'Li3 Mn84 O168'
_cell_volume   2944.27132967
_cell_formula_units_Z   3
loop_
 _symmetry_equiv_pos_site_id
 _symmetry_equiv_pos_as_xyz
  1  'x, y, z'
  2  '-y, x-y, z'
  3  '-x+y, -x, z'
  4  'x+2/3, y+1/3, z+1/3'
  5  '-y+2/3, x-y+1/3, z+1/3'
  6  '-x+y+2/3, -x+1/3, z+1/3'
  7  'x+1/3, y+2/3, z+2/3'
  8  '-y+1/3, x-y+2/3, z+2/3'
  9  '-x+y+1/3, -x+2/3, z+2/3'
loop_
 _atom_site_type_symbol
 _atom_site_label
 _atom_site_symmetry_multiplicity
 _atom_site_fract_x
 _atom_site_fract_y
 _atom_site_fract_z
 _atom_site_occupancy
  Li  Li1  3  0.000000  0.000000  0.482165  1
  Mn  Mn2  9  0.023963  0.904119  0.691268  1
  Mn  Mn3  9  0.024178  0.404915  0.690481  1
  Mn  Mn4  9  0.047804  0.808796  0.524413  1
  Mn  Mn5  9  0.071323  0.215076  0.356531  1
  Mn  Mn6  9  0.071344  0.714503  0.357286  1
  Mn  Mn7  9  0.118885  0.023766  0.023712  1
  Mn  Mn8  9  0.142865  0.428572  0.856800  1
  Mn  Mn9  9  0.166730  0.333641  0.690585  1
  Mn  Mn10  9  0.190217  0.738749  0.023181  1
  Mn  Mn11  3  0.000000  0.000000  0.857209  1
  O  O12  9  0.009812  0.401957  0.435645  1
  O  O13  9  0.011235  0.514008  0.102248  1
  O  O14  9  0.021003  0.915919  0.945357  1
  O  O15  9  0.026302  0.894829  0.436140  1
  O  O16  9  0.036693  0.295802  0.278653  1
  O  O17  9  0.047584  0.809565  0.759417  1
  O  O18  9  0.047648  0.809566  0.288547  1
  O  O19  9  0.057452  0.211514  0.102275  1
  O  O20  9  0.068670  0.725264  0.611852  1
  O  O21  9  0.074166  0.703026  0.102201  1
  O  O22  9  0.085586  0.217042  0.612074  1
  O  O23  9  0.105051  0.021000  0.768854  1
  O  O24  9  0.133155  0.026611  0.278859  1
  O  O25  9  0.142735  0.428507  0.621787  1
  O  O26  9  0.142930  0.428651  0.092281  1
  O  O27  9  0.164028  0.344333  0.945313  1
  O  O28  9  0.179191  0.723899  0.278718  1
  O  O29  9  0.201577  0.752065  0.768877  1
  O  O30  3  0.000000  0.000000  0.092464  1
  O  O31  3  0.000000  0.000000  0.620226  1
