# generated using pymatgen
data_LiMn2O4
_symmetry_space_group_name_H-M   P1
_cell_length_a   6.04904276
_cell_length_b   8.22519362
_cell_length_c   10.23491823
_cell_angle_alpha   66.30638906
_cell_angle_beta   75.48565320
_cell_angle_gamma   89.50460887
_symmetry_Int_Tables_number   1
_chemical_formula_structural   LiMn2O4
_chemical_formula_sum   'Li6 Mn12 O24'
_cell_volume   448.98570207
_cell_formula_units_Z   6
loop_
 _symmetry_equiv_pos_site_id
 _symmetry_equiv_pos_as_xyz
  1  'x, y, z'
loop_
 _atom_site_type_symbol
 _atom_site_label
 _atom_site_symmetry_multiplicity
 _atom_site_fract_x
 _atom_site_fract_y
 _atom_site_fract_z
 _atom_site_occupancy
  Li  Li1  1  0.066899  0.957552  0.836606  1
  Li  Li2  1  0.265249  0.379610  0.495597  1
  Li  Li3  1  0.405481  0.288073  0.171408  1
  Li  Li4  1  0.588043  0.709924  0.831245  1
  Li  Li5  1  0.739497  0.625866  0.502077  1
  Li  Li6  1  0.931970  0.041157  0.163939  1
  Mn  Mn7  1  0.001791  0.000912  0.499025  1
  Mn  Mn8  1  0.160565  0.668254  0.668045  1
  Mn  Mn9  1  0.171481  0.667014  0.165517  1
  Mn  Mn10  1  0.323670  0.329651  0.839194  1
  Mn  Mn11  1  0.338939  0.834053  0.333459  1
  Mn  Mn12  1  0.498623  0.999631  0.999591  1
  Mn  Mn13  1  0.503456  0.002158  0.496185  1
  Mn  Mn14  1  0.663609  0.169943  0.665200  1
  Mn  Mn15  1  0.672379  0.669866  0.162211  1
  Mn  Mn16  1  0.823762  0.331690  0.838755  1
  Mn  Mn17  1  0.841081  0.333876  0.332091  1
  Mn  Mn18  1  0.994158  0.496344  0.002910  1
  O  O19  1  0.010420  0.762842  0.506111  1
  O  O20  1  0.017852  0.271260  0.983733  1
  O  O21  1  0.131230  0.426984  0.170857  1
  O  O22  1  0.154571  0.912217  0.654616  1
  O  O23  1  0.168898  0.420829  0.684294  1
  O  O24  1  0.210499  0.906109  0.159988  1
  O  O25  1  0.288704  0.565640  0.847755  1
  O  O26  1  0.308276  0.062564  0.356717  1
  O  O27  1  0.337527  0.092163  0.846307  1
  O  O28  1  0.367875  0.605619  0.304123  1
  O  O29  1  0.482420  0.236414  0.993598  1
  O  O30  1  0.484067  0.770676  0.491823  1
  O  O31  1  0.514356  0.760777  0.008207  1
  O  O32  1  0.546651  0.246236  0.486776  1
  O  O33  1  0.628140  0.394478  0.695156  1
  O  O34  1  0.662635  0.907860  0.151156  1
  O  O35  1  0.692343  0.943462  0.641190  1
  O  O36  1  0.701618  0.428349  0.163073  1
  O  O37  1  0.788126  0.094068  0.839929  1
  O  O38  1  0.825809  0.576358  0.318598  1
  O  O39  1  0.840199  0.558079  0.851640  1
  O  O40  1  0.850657  0.096494  0.340770  1
  O  O41  1  0.980319  0.724190  0.021028  1
  O  O42  1  0.990946  0.245538  0.487305  1
