# generated using pymatgen
data_LiMn2O4
_symmetry_space_group_name_H-M   Fddd
_cell_length_a   8.66131541
_cell_length_b   24.78447778
_cell_length_c   24.88328794
_cell_angle_alpha   90.00000000
_cell_angle_beta   90.00000000
_cell_angle_gamma   90.00000000
_symmetry_Int_Tables_number   70
_chemical_formula_structural   LiMn2O4
_chemical_formula_sum   'Li72 Mn144 O288'
_cell_volume   5341.60035112
_cell_formula_units_Z   72
loop_
 _symmetry_equiv_pos_site_id
 _symmetry_equiv_pos_as_xyz
  1  'x, y, z'
  2  '-x+1/2, -y+1/2, z'
  3  'x, -y+1/2, -z+1/2'
  4  '-x+1/2, y, -z+1/2'
  5  '-x+1/4, -y+3/4, -z+3/4'
  6  'x+1/4, y+3/4, -z+3/4'
  7  '-x+1/4, y+3/4, z+3/4'
  8  'x+1/4, -y+3/4, z+3/4'
  9  'x+1/2, y, z+1/2'
  10  '-x, -y+1/2, z+1/2'
  11  'x+1/2, -y+1/2, -z'
  12  '-x, y, -z'
  13  '-x+3/4, -y+3/4, -z+1/4'
  14  'x+3/4, y+3/4, -z+1/4'
  15  '-x+3/4, y+3/4, z+1/4'
  16  'x+3/4, -y+3/4, z+1/4'
  17  'x+1/2, y+1/2, z'
  18  '-x, -y, z'
  19  'x+1/2, -y, -z+1/2'
  20  '-x, y+1/2, -z+1/2'
  21  '-x+3/4, -y+1/4, -z+3/4'
  22  'x+3/4, y+1/4, -z+3/4'
  23  '-x+3/4, y+1/4, z+3/4'
  24  'x+3/4, -y+1/4, z+3/4'
  25  'x, y+1/2, z+1/2'
  26  '-x+1/2, -y, z+1/2'
  27  'x, -y, -z'
  28  '-x+1/2, y+1/2, -z'
  29  '-x+1/4, -y+1/4, -z+1/4'
  30  'x+1/4, y+1/4, -z+1/4'
  31  '-x+1/4, y+1/4, z+1/4'
  32  'x+1/4, -y+1/4, z+1/4'
loop_
 _atom_site_type_symbol
 _atom_site_label
 _atom_site_symmetry_multiplicity
 _atom_site_fract_x
 _atom_site_fract_y
 _atom_site_fract_z
 _atom_site_occupancy
  Li  Li1  32  0.003326  0.166367  0.668274  1
  Li  Li2  16  0.000000  0.000000  0.164962  1
  Li  Li3  16  0.000000  0.168730  0.000000  1
  Li  Li4  8  0.000000  0.000000  0.500000  1
  Mn  Mn5  32  0.120677  0.126448  0.457563  1
  Mn  Mn6  32  0.121161  0.207976  0.209756  1
  Mn  Mn7  32  0.121413  0.041688  0.377363  1
  Mn  Mn8  32  0.123280  0.290844  0.957402  1
  Mn  Mn9  16  0.125000  0.125000  0.125000  1
  O  O10  32  0.098222  0.126623  0.203855  1
  O  O11  32  0.098917  0.205106  0.131227  1
  O  O12  32  0.104508  0.036705  0.624290  1
  O  O13  32  0.107957  0.130822  0.536201  1
  O  O14  32  0.115381  0.039083  0.963046  1
  O  O15  32  0.118992  0.203610  0.460727  1
  O  O16  32  0.120389  0.036289  0.300303  1
  O  O17  32  0.120523  0.119633  0.380729  1
  O  O18  32  0.124898  0.048438  0.454440  1
