# generated using pymatgen
data_Li(CoO2)4
_symmetry_space_group_name_H-M   R-3m
_cell_length_a   5.71382578
_cell_length_b   5.71382578
_cell_length_c   13.70880264
_cell_angle_alpha   90.00000000
_cell_angle_beta   90.00000000
_cell_angle_gamma   120.00000000
_symmetry_Int_Tables_number   166
_chemical_formula_structural   Li(CoO2)4
_chemical_formula_sum   'Li3 Co12 O24'
_cell_volume   387.60033603
_cell_formula_units_Z   3
loop_
 _symmetry_equiv_pos_site_id
 _symmetry_equiv_pos_as_xyz
  1  'x, y, z'
  2  '-x, -y, -z'
  3  '-y, x-y, z'
  4  'y, -x+y, -z'
  5  '-x+y, -x, z'
  6  'x-y, x, -z'
  7  '-x, -x+y, -z'
  8  'x, x-y, z'
  9  'y, x, -z'
  10  '-y, -x, z'
  11  'x-y, -y, -z'
  12  '-x+y, y, z'
  13  'x+2/3, y+1/3, z+1/3'
  14  '-x+2/3, -y+1/3, -z+1/3'
  15  '-y+2/3, x-y+1/3, z+1/3'
  16  'y+2/3, -x+y+1/3, -z+1/3'
  17  '-x+y+2/3, -x+1/3, z+1/3'
  18  'x-y+2/3, x+1/3, -z+1/3'
  19  '-x+2/3, -x+y+1/3, -z+1/3'
  20  'x+2/3, x-y+1/3, z+1/3'
  21  'y+2/3, x+1/3, -z+1/3'
  22  '-y+2/3, -x+1/3, z+1/3'
  23  'x-y+2/3, -y+1/3, -z+1/3'
  24  '-x+y+2/3, y+1/3, z+1/3'
  25  'x+1/3, y+2/3, z+2/3'
  26  '-x+1/3, -y+2/3, -z+2/3'
  27  '-y+1/3, x-y+2/3, z+2/3'
  28  'y+1/3, -x+y+2/3, -z+2/3'
  29  '-x+y+1/3, -x+2/3, z+2/3'
  30  'x-y+1/3, x+2/3, -z+2/3'
  31  '-x+1/3, -x+y+2/3, -z+2/3'
  32  'x+1/3, x-y+2/3, z+2/3'
  33  'y+1/3, x+2/3, -z+2/3'
  34  '-y+1/3, -x+2/3, z+2/3'
  35  'x-y+1/3, -y+2/3, -z+2/3'
  36  '-x+y+1/3, y+2/3, z+2/3'
loop_
 _atom_site_type_symbol
 _atom_site_label
 _atom_site_symmetry_multiplicity
 _atom_site_fract_x
 _atom_site_fract_y
 _atom_site_fract_z
 _atom_site_occupancy
  Li  Li1  3  0.000000  0.000000  0.000000  1
  Co  Co2  9  0.000000  0.500000  0.000000  1
  Co  Co3  3  0.000000  0.000000  0.500000  1
  O  O4  18  0.032922  0.516461  0.256421  1
  O  O5  6  0.000000  0.000000  0.265169  1
