# generated using pymatgen
data_Li(CoO2)2
_symmetry_space_group_name_H-M   R3m
_cell_length_a   5.71350450
_cell_length_b   5.71350450
_cell_length_c   14.23238522
_cell_angle_alpha   90.00000000
_cell_angle_beta   90.00000000
_cell_angle_gamma   120.00000000
_symmetry_Int_Tables_number   160
_chemical_formula_structural   Li(CoO2)2
_chemical_formula_sum   'Li6 Co12 O24'
_cell_volume   402.35876815
_cell_formula_units_Z   6
loop_
 _symmetry_equiv_pos_site_id
 _symmetry_equiv_pos_as_xyz
  1  'x, y, z'
  2  '-y, x-y, z'
  3  '-x+y, -x, z'
  4  '-y, -x, z'
  5  '-x+y, y, z'
  6  'x, x-y, z'
  7  'x+2/3, y+1/3, z+1/3'
  8  '-y+2/3, x-y+1/3, z+1/3'
  9  '-x+y+2/3, -x+1/3, z+1/3'
  10  '-y+2/3, -x+1/3, z+1/3'
  11  '-x+y+2/3, y+1/3, z+1/3'
  12  'x+2/3, x-y+1/3, z+1/3'
  13  'x+1/3, y+2/3, z+2/3'
  14  '-y+1/3, x-y+2/3, z+2/3'
  15  '-x+y+1/3, -x+2/3, z+2/3'
  16  '-y+1/3, -x+2/3, z+2/3'
  17  '-x+y+1/3, y+2/3, z+2/3'
  18  'x+1/3, x-y+2/3, z+2/3'
loop_
 _atom_site_type_symbol
 _atom_site_label
 _atom_site_symmetry_multiplicity
 _atom_site_fract_x
 _atom_site_fract_y
 _atom_site_fract_z
 _atom_site_occupancy
  Li  Li1  3  0.000000  0.000000  0.499977  1
  Li  Li2  3  0.000000  0.000000  0.878603  1
  Co  Co3  9  0.169025  0.338049  0.332379  1
  Co  Co4  3  0.000000  0.000000  0.121351  1
  O  O5  9  0.028898  0.514449  0.264517  1
  O  O6  9  0.180441  0.360883  0.070677  1
  O  O7  3  0.000000  0.000000  0.260475  1
  O  O8  3  0.000000  0.000000  0.736873  1
