# generated using pymatgen
data_Li(CoO2)3
_symmetry_space_group_name_H-M   P1
_cell_length_a   4.91377851
_cell_length_b   4.93188689
_cell_length_c   10.46737889
_cell_angle_alpha   90.34910666
_cell_angle_beta   103.23708780
_cell_angle_gamma   119.45815858
_symmetry_Int_Tables_number   1
_chemical_formula_structural   Li(CoO2)3
_chemical_formula_sum   'Li2 Co6 O12'
_cell_volume   212.88565831
_cell_formula_units_Z   2
loop_
 _symmetry_equiv_pos_site_id
 _symmetry_equiv_pos_as_xyz
  1  'x, y, z'
loop_
 _atom_site_type_symbol
 _atom_site_label
 _atom_site_symmetry_multiplicity
 _atom_site_fract_x
 _atom_site_fract_y
 _atom_site_fract_z
 _atom_site_occupancy
  Li  Li1  1  0.167100  0.905813  0.745984  1
  Li  Li2  1  0.831733  0.076317  0.245048  1
  Co  Co3  1  0.002784  0.168970  0.507116  1
  Co  Co4  1  0.333619  0.833877  0.497761  1
  Co  Co5  1  0.337340  0.000640  0.004256  1
  Co  Co6  1  0.654433  0.494382  0.491519  1
  Co  Co7  1  0.662570  0.668535  0.997044  1
  Co  Co8  1  0.997057  0.334445  0.995604  1
  O  O9  1  0.050173  0.031918  0.094539  1
  O  O10  1  0.071103  0.544283  0.596559  1
  O  O11  1  0.247965  0.456133  0.401937  1
  O  O12  1  0.271806  0.297734  0.904839  1
  O  O13  1  0.384240  0.180130  0.598883  1
  O  O14  1  0.421528  0.713043  0.100851  1
  O  O15  1  0.579930  0.951547  0.898689  1
  O  O16  1  0.609790  0.116509  0.400464  1
  O  O17  1  0.734586  0.367321  0.094306  1
  O  O18  1  0.734677  0.879037  0.598605  1
  O  O19  1  0.941281  0.643802  0.904117  1
  O  O20  1  0.953234  0.829039  0.401845  1
