# generated using pymatgen
data_Li4Mn3O8
_symmetry_space_group_name_H-M   R32
_cell_length_a   11.81678234
_cell_length_b   11.81678234
_cell_length_c   14.31090884
_cell_angle_alpha   90.00000000
_cell_angle_beta   90.00000000
_cell_angle_gamma   120.00000000
_symmetry_Int_Tables_number   155
_chemical_formula_structural   Li4Mn3O8
_chemical_formula_sum   'Li48 Mn36 O96'
_cell_volume   1730.59848380
_cell_formula_units_Z   12
loop_
 _symmetry_equiv_pos_site_id
 _symmetry_equiv_pos_as_xyz
  1  'x, y, z'
  2  '-y, x-y, z'
  3  '-x+y, -x, z'
  4  'x-y, -y, -z'
  5  '-x, -x+y, -z'
  6  'y, x, -z'
  7  'x+2/3, y+1/3, z+1/3'
  8  '-y+2/3, x-y+1/3, z+1/3'
  9  '-x+y+2/3, -x+1/3, z+1/3'
  10  'x-y+2/3, -y+1/3, -z+1/3'
  11  '-x+2/3, -x+y+1/3, -z+1/3'
  12  'y+2/3, x+1/3, -z+1/3'
  13  'x+1/3, y+2/3, z+2/3'
  14  '-y+1/3, x-y+2/3, z+2/3'
  15  '-x+y+1/3, -x+2/3, z+2/3'
  16  'x-y+1/3, -y+2/3, -z+2/3'
  17  '-x+1/3, -x+y+2/3, -z+2/3'
  18  'y+1/3, x+2/3, -z+2/3'
loop_
 _atom_site_type_symbol
 _atom_site_label
 _atom_site_symmetry_multiplicity
 _atom_site_fract_x
 _atom_site_fract_y
 _atom_site_fract_z
 _atom_site_occupancy
  Li  Li1  18  0.021394  0.511185  0.122409  1
  Li  Li2  18  0.057371  0.907658  0.138285  1
  Li  Li3  9  0.000000  0.723927  0.000000  1
  Li  Li4  3  0.000000  0.000000  0.500000  1
  Mn  Mn5  18  0.079617  0.163969  0.670369  1
  Mn  Mn6  9  0.000000  0.257918  0.000000  1
  Mn  Mn7  9  0.000000  0.493612  0.500000  1
  O  O8  18  0.009382  0.253949  0.747900  1
  O  O9  18  0.011747  0.496736  0.263884  1
  O  O10  18  0.018652  0.776217  0.759773  1
  O  O11  18  0.071078  0.920722  0.398174  1
  O  O12  18  0.075005  0.187493  0.917297  1
  O  O13  6  0.000000  0.000000  0.747278  1
