# generated using pymatgen
data_Li4Mn3O7
_symmetry_space_group_name_H-M   C2/m
_cell_length_a   19.57483412
_cell_length_b   2.87845996
_cell_length_c   9.88601358
_cell_angle_alpha   90.00000000
_cell_angle_beta   111.11704862
_cell_angle_gamma   90.00000000
_symmetry_Int_Tables_number   12
_chemical_formula_structural   Li4Mn3O7
_chemical_formula_sum   'Li16 Mn12 O28'
_cell_volume   519.62449324
_cell_formula_units_Z   4
loop_
 _symmetry_equiv_pos_site_id
 _symmetry_equiv_pos_as_xyz
  1  'x, y, z'
  2  '-x, -y, -z'
  3  '-x, y, -z'
  4  'x, -y, z'
  5  'x+1/2, y+1/2, z'
  6  '-x+1/2, -y+1/2, -z'
  7  '-x+1/2, y+1/2, -z'
  8  'x+1/2, -y+1/2, z'
loop_
 _atom_site_type_symbol
 _atom_site_label
 _atom_site_symmetry_multiplicity
 _atom_site_fract_x
 _atom_site_fract_y
 _atom_site_fract_z
 _atom_site_occupancy
  Li  Li1  4  0.067548  0.500000  0.789727  1
  Li  Li2  4  0.137169  0.000000  0.064776  1
  Li  Li3  4  0.208316  0.500000  0.346451  1
  Li  Li4  2  0.000000  0.000000  0.500000  1
  Li  Li5  2  0.000000  0.500000  0.000000  1
  Mn  Mn6  4  0.064246  0.000000  0.269480  1
  Mn  Mn7  4  0.140695  0.500000  0.562292  1
  Mn  Mn8  4  0.213021  0.000000  0.854209  1
  O  O9  4  0.025255  0.000000  0.875119  1
  O  O10  4  0.036929  0.500000  0.375126  1
  O  O11  4  0.103664  0.500000  0.188003  1
  O  O12  4  0.107925  0.000000  0.657881  1
  O  O13  4  0.168468  0.000000  0.455322  1
  O  O14  4  0.178100  0.500000  0.948464  1
  O  O15  4  0.248592  0.500000  0.760578  1
