# generated using pymatgen
data_Li4Mn3O7
_symmetry_space_group_name_H-M   C2/m
_cell_length_a   20.98110453
_cell_length_b   2.88494351
_cell_length_c   8.81041383
_cell_angle_alpha   90.00000000
_cell_angle_beta   101.40688284
_cell_angle_gamma   90.00000000
_symmetry_Int_Tables_number   12
_chemical_formula_structural   Li4Mn3O7
_chemical_formula_sum   'Li16 Mn12 O28'
_cell_volume   522.75437789
_cell_formula_units_Z   4
loop_
 _symmetry_equiv_pos_site_id
 _symmetry_equiv_pos_as_xyz
  1  'x, y, z'
  2  '-x, -y, -z'
  3  '-x, y, -z'
  4  'x, -y, z'
  5  'x+1/2, y+1/2, z'
  6  '-x+1/2, -y+1/2, -z'
  7  '-x+1/2, y+1/2, -z'
  8  'x+1/2, -y+1/2, z'
loop_
 _atom_site_type_symbol
 _atom_site_label
 _atom_site_symmetry_multiplicity
 _atom_site_fract_x
 _atom_site_fract_y
 _atom_site_fract_z
 _atom_site_occupancy
  Li  Li1  4  0.069898  0.500000  0.319874  1
  Li  Li2  4  0.138703  0.000000  0.575357  1
  Li  Li3  4  0.215497  0.500000  0.852272  1
  Li  Li4  2  0.000000  0.000000  0.000000  1
  Li  Li5  2  0.000000  0.000000  0.500000  1
  Mn  Mn6  4  0.069258  0.500000  0.765609  1
  Mn  Mn7  4  0.140677  0.000000  0.060928  1
  Mn  Mn8  4  0.211044  0.500000  0.357502  1
  O  O9  4  0.006032  0.000000  0.751165  1
  O  O10  4  0.071255  0.500000  0.558324  1
  O  O11  4  0.075579  0.500000  0.010923  1
  O  O12  4  0.134137  0.000000  0.807236  1
  O  O13  4  0.145165  0.000000  0.325859  1
  O  O14  4  0.205559  0.500000  0.094320  1
  O  O15  4  0.224257  0.500000  0.618495  1
