# generated using pymatgen
data_Li4Mn3O7
_symmetry_space_group_name_H-M   C2/m
_cell_length_a   9.79062943
_cell_length_b   2.88362112
_cell_length_c   18.69879481
_cell_angle_alpha   90.00000000
_cell_angle_beta   97.71243966
_cell_angle_gamma   90.00000000
_symmetry_Int_Tables_number   12
_chemical_formula_structural   Li4Mn3O7
_chemical_formula_sum   'Li16 Mn12 O28'
_cell_volume   523.13762834
_cell_formula_units_Z   4
loop_
 _symmetry_equiv_pos_site_id
 _symmetry_equiv_pos_as_xyz
  1  'x, y, z'
  2  '-x, -y, -z'
  3  '-x, y, -z'
  4  'x, -y, z'
  5  'x+1/2, y+1/2, z'
  6  '-x+1/2, -y+1/2, -z'
  7  '-x+1/2, y+1/2, -z'
  8  'x+1/2, -y+1/2, z'
loop_
 _atom_site_type_symbol
 _atom_site_label
 _atom_site_symmetry_multiplicity
 _atom_site_fract_x
 _atom_site_fract_y
 _atom_site_fract_z
 _atom_site_occupancy
  Li  Li1  4  0.072290  0.500000  0.142853  1
  Li  Li2  4  0.138908  0.000000  0.292068  1
  Li  Li3  4  0.217795  0.500000  0.432695  1
  Li  Li4  2  0.000000  0.000000  0.000000  1
  Li  Li5  2  0.000000  0.000000  0.500000  1
  Mn  Mn6  4  0.076583  0.500000  0.632790  1
  Mn  Mn7  4  0.145492  0.000000  0.780143  1
  Mn  Mn8  4  0.213486  0.500000  0.927028  1
  O  O9  4  0.016786  0.500000  0.744971  1
  O  O10  4  0.053284  0.000000  0.389393  1
  O  O11  4  0.081618  0.000000  0.896262  1
  O  O12  4  0.139000  0.500000  0.545955  1
  O  O13  4  0.154884  0.500000  0.041894  1
  O  O14  4  0.203467  0.000000  0.671216  1
  O  O15  4  0.224434  0.000000  0.185914  1
