# generated using pymatgen
data_Li7Mn10O24
_symmetry_space_group_name_H-M   C2
_cell_length_a   8.25975497
_cell_length_b   8.24729776
_cell_length_c   13.04297455
_cell_angle_alpha   90.00000000
_cell_angle_beta   108.14398712
_cell_angle_gamma   90.00000000
_symmetry_Int_Tables_number   5
_chemical_formula_structural   Li7Mn10O24
_chemical_formula_sum   'Li14 Mn20 O48'
_cell_volume   844.31727562
_cell_formula_units_Z   2
loop_
 _symmetry_equiv_pos_site_id
 _symmetry_equiv_pos_as_xyz
  1  'x, y, z'
  2  '-x, y, -z'
  3  'x+1/2, y+1/2, z'
  4  '-x+1/2, y+1/2, -z'
loop_
 _atom_site_type_symbol
 _atom_site_label
 _atom_site_symmetry_multiplicity
 _atom_site_fract_x
 _atom_site_fract_y
 _atom_site_fract_z
 _atom_site_occupancy
  Li  Li1  4  0.000017  0.836383  0.748534  1
  Li  Li2  4  0.162189  0.455467  0.830040  1
  Li  Li3  4  0.163047  0.213176  0.333333  1
  Li  Li4  2  0.000000  0.713830  0.000000  1
  Mn  Mn5  4  0.083209  0.588270  0.415162  1
  Mn  Mn6  4  0.083504  0.081446  0.914572  1
  Mn  Mn7  4  0.168339  0.333325  0.584334  1
  Mn  Mn8  4  0.169184  0.334158  0.085553  1
  Mn  Mn9  4  0.249937  0.084730  0.748425  1
  O  O10  4  0.023994  0.083579  0.764668  1
  O  O11  4  0.024313  0.586107  0.263316  1
  O  O12  4  0.073720  0.320034  0.926547  1
  O  O13  4  0.075462  0.348123  0.426550  1
  O  O14  4  0.104242  0.853085  0.919058  1
  O  O15  4  0.104244  0.813878  0.418060  1
  O  O16  4  0.148118  0.097781  0.075951  1
  O  O17  4  0.149792  0.570709  0.575671  1
  O  O18  4  0.183784  0.571685  0.091445  1
  O  O19  4  0.186252  0.097549  0.593063  1
  O  O20  4  0.243648  0.352002  0.236658  1
  O  O21  4  0.244120  0.315855  0.736904  1
