# generated using pymatgen
data_Li7Mn17O32
_symmetry_space_group_name_H-M   C2
_cell_length_a   12.08186371
_cell_length_b   16.60807598
_cell_length_c   8.27561217
_cell_angle_alpha   90.00000000
_cell_angle_beta   132.99769447
_cell_angle_gamma   90.00000000
_symmetry_Int_Tables_number   5
_chemical_formula_structural   Li7Mn17O32
_chemical_formula_sum   'Li14 Mn34 O64'
_cell_volume   1214.49895198
_cell_formula_units_Z   2
loop_
 _symmetry_equiv_pos_site_id
 _symmetry_equiv_pos_as_xyz
  1  'x, y, z'
  2  '-x, y, -z'
  3  'x+1/2, y+1/2, z'
  4  '-x+1/2, y+1/2, -z'
loop_
 _atom_site_type_symbol
 _atom_site_label
 _atom_site_symmetry_multiplicity
 _atom_site_fract_x
 _atom_site_fract_y
 _atom_site_fract_z
 _atom_site_occupancy
  Li  Li1  4  0.246334  0.811504  0.496419  1
  Li  Li2  4  0.249806  0.062459  0.001723  1
  Li  Li3  2  0.000000  0.188489  0.000000  1
  Li  Li4  2  0.000000  0.439166  0.500000  1
  Li  Li5  2  0.000000  0.685778  0.000000  1
  Mn  Mn6  4  0.120306  0.748107  0.747041  1
  Mn  Mn7  4  0.120666  0.873588  0.997769  1
  Mn  Mn8  4  0.122316  0.127154  0.495353  1
  Mn  Mn9  4  0.123505  0.499979  0.248453  1
  Mn  Mn10  4  0.125012  0.001210  0.246778  1
  Mn  Mn11  4  0.126479  0.624560  0.501131  1
  Mn  Mn12  4  0.127774  0.375817  0.004277  1
  Mn  Mn13  4  0.130819  0.249482  0.755159  1
  Mn  Mn14  2  0.000000  0.939238  0.500000  1
  O  O15  4  0.102880  0.130450  0.714562  1
  O  O16  4  0.103881  0.880473  0.215784  1
  O  O17  4  0.104244  0.743768  0.493732  1
  O  O18  4  0.115357  0.493918  0.004581  1
  O  O19  4  0.119592  0.756904  0.977195  1
  O  O20  4  0.120195  0.866705  0.763527  1
  O  O21  4  0.121291  0.989742  0.009070  1
  O  O22  4  0.121647  0.242170  0.510434  1
  O  O23  4  0.121969  0.381929  0.233926  1
  O  O24  4  0.122385  0.633841  0.735333  1
  O  O25  4  0.124066  0.119384  0.267017  1
  O  O26  4  0.130964  0.507670  0.489443  1
  O  O27  4  0.132761  0.008545  0.493940  1
  O  O28  4  0.153559  0.619576  0.287193  1
  O  O29  4  0.155621  0.256610  0.019463  1
  O  O30  4  0.156270  0.368120  0.791039  1
