# generated using pymatgen
data_Li8(CoO2)5
_symmetry_space_group_name_H-M   Cm
_cell_length_a   10.11004586
_cell_length_b   3.59700921
_cell_length_c   14.33518150
_cell_angle_alpha   90.00000000
_cell_angle_beta   106.28876168
_cell_angle_gamma   90.00000000
_symmetry_Int_Tables_number   8
_chemical_formula_structural   Li8(CoO2)5
_chemical_formula_sum   'Li16 Co10 O20'
_cell_volume   500.38687829
_cell_formula_units_Z   2
loop_
 _symmetry_equiv_pos_site_id
 _symmetry_equiv_pos_as_xyz
  1  'x, y, z'
  2  'x, -y, z'
  3  'x+1/2, y+1/2, z'
  4  'x+1/2, -y+1/2, z'
loop_
 _atom_site_type_symbol
 _atom_site_label
 _atom_site_symmetry_multiplicity
 _atom_site_fract_x
 _atom_site_fract_y
 _atom_site_fract_z
 _atom_site_occupancy
  Li  Li1  2  0.211079  0.000000  0.946749  1
  Li  Li2  2  0.212333  0.000000  0.341704  1
  Li  Li3  2  0.222184  0.000000  0.730139  1
  Li  Li4  2  0.222354  0.000000  0.557987  1
  Li  Li5  2  0.272176  0.500000  0.243141  1
  Li  Li6  2  0.276696  0.500000  0.066375  1
  Li  Li7  2  0.286094  0.500000  0.463445  1
  Li  Li8  2  0.288043  0.500000  0.853250  1
  Co  Co9  2  0.006332  0.500000  0.605428  1
  Co  Co10  2  0.492065  0.000000  0.198333  1
  Co  Co11  2  0.497533  0.000000  0.399405  1
  Co  Co12  2  0.498354  0.000000  0.002216  1
  Co  Co13  2  0.499720  0.000000  0.800573  1
  O  O14  2  0.124329  0.500000  0.121019  1
  O  O15  2  0.129993  0.500000  0.524222  1
  O  O16  2  0.133985  0.500000  0.934323  1
  O  O17  2  0.137158  0.500000  0.329606  1
  O  O18  2  0.143580  0.500000  0.731357  1
  O  O19  2  0.360723  0.000000  0.277054  1
  O  O20  2  0.363209  0.000000  0.065740  1
  O  O21  2  0.363449  0.000000  0.879896  1
  O  O22  2  0.363716  0.000000  0.474999  1
  O  O23  2  0.372413  0.000000  0.672576  1
