# generated using pymatgen
data_Li9(CoO4)2
_symmetry_space_group_name_H-M   Pca2_1
_cell_length_a   9.27685084
_cell_length_b   9.30084720
_cell_length_c   9.11957232
_cell_angle_alpha   90.00000000
_cell_angle_beta   90.00000000
_cell_angle_gamma   90.00000000
_symmetry_Int_Tables_number   29
_chemical_formula_structural   Li9(CoO4)2
_chemical_formula_sum   'Li36 Co8 O32'
_cell_volume   786.86015677
_cell_formula_units_Z   4
loop_
 _symmetry_equiv_pos_site_id
 _symmetry_equiv_pos_as_xyz
  1  'x, y, z'
  2  '-x, -y, z+1/2'
  3  '-x+1/2, y, z+1/2'
  4  'x+1/2, -y, z'
loop_
 _atom_site_type_symbol
 _atom_site_label
 _atom_site_symmetry_multiplicity
 _atom_site_fract_x
 _atom_site_fract_y
 _atom_site_fract_z
 _atom_site_occupancy
  Li  Li1  4  0.108949  0.366322  0.665399  1
  Li  Li2  4  0.114125  0.912959  0.395635  1
  Li  Li3  4  0.115184  0.860393  0.845613  1
  Li  Li4  4  0.115331  0.134485  0.142250  1
  Li  Li5  4  0.119967  0.098752  0.604303  1
  Li  Li6  4  0.121443  0.411091  0.084520  1
  Li  Li7  4  0.131436  0.646575  0.362269  1
  Li  Li8  4  0.148756  0.128044  0.871775  1
  Li  Li9  4  0.150649  0.633329  0.640447  1
  Co  Co10  4  0.131054  0.372693  0.378057  1
  Co  Co11  4  0.149434  0.862102  0.120445  1
  O  O12  4  0.009876  0.784731  0.247139  1
  O  O13  4  0.014157  0.280443  0.251290  1
  O  O14  4  0.037830  0.993342  0.000448  1
  O  O15  4  0.048493  0.497924  0.501258  1
  O  O16  4  0.235840  0.486437  0.254910  1
  O  O17  4  0.237350  0.769364  0.494038  1
  O  O18  4  0.238897  0.258855  0.502780  1
  O  O19  4  0.248571  0.998412  0.242034  1
