# generated using pymatgen
data_Li9Co7O16
_symmetry_space_group_name_H-M   P-1
_cell_length_a   5.68867100
_cell_length_b   6.41409705
_cell_length_c   7.55193981
_cell_angle_alpha   88.97583458
_cell_angle_beta   79.02254729
_cell_angle_gamma   77.13564706
_symmetry_Int_Tables_number   2
_chemical_formula_structural   Li9Co7O16
_chemical_formula_sum   'Li9 Co7 O16'
_cell_volume   263.63438090
_cell_formula_units_Z   1
loop_
 _symmetry_equiv_pos_site_id
 _symmetry_equiv_pos_as_xyz
  1  'x, y, z'
  2  '-x, -y, -z'
loop_
 _atom_site_type_symbol
 _atom_site_label
 _atom_site_symmetry_multiplicity
 _atom_site_fract_x
 _atom_site_fract_y
 _atom_site_fract_z
 _atom_site_occupancy
  Li  Li1  2  0.122559  0.377943  0.625637  1
  Li  Li2  2  0.133927  0.867370  0.121198  1
  Li  Li3  2  0.375082  0.623505  0.369806  1
  Li  Li4  2  0.378892  0.128954  0.877982  1
  Li  Li5  1  0.500000  0.500000  0.000000  1
  Co  Co6  2  0.251800  0.748912  0.752735  1
  Co  Co7  2  0.252707  0.250736  0.246983  1
  Co  Co8  1  0.000000  0.000000  0.500000  1
  Co  Co9  1  0.000000  0.500000  0.000000  1
  Co  Co10  1  0.500000  0.000000  0.500000  1
  O  O11  2  0.054831  0.707296  0.576515  1
  O  O12  2  0.055209  0.206244  0.074086  1
  O  O13  2  0.178045  0.542818  0.178638  1
  O  O14  2  0.194908  0.042131  0.673362  1
  O  O15  2  0.289025  0.457012  0.820066  1
  O  O16  2  0.305110  0.955381  0.325804  1
  O  O17  2  0.441437  0.810204  0.916600  1
  O  O18  2  0.444786  0.294633  0.422750  1
