# generated using pymatgen
data_Li9Co7O16
_symmetry_space_group_name_H-M   P-1
_cell_length_a   2.94187896
_cell_length_b   9.84851824
_cell_length_c   9.98958081
_cell_angle_alpha   79.11213327
_cell_angle_beta   89.20501341
_cell_angle_gamma   88.78412369
_symmetry_Int_Tables_number   2
_chemical_formula_structural   Li9Co7O16
_chemical_formula_sum   'Li9 Co7 O16'
_cell_volume   284.14116550
_cell_formula_units_Z   1
loop_
 _symmetry_equiv_pos_site_id
 _symmetry_equiv_pos_as_xyz
  1  'x, y, z'
  2  '-x, -y, -z'
loop_
 _atom_site_type_symbol
 _atom_site_label
 _atom_site_symmetry_multiplicity
 _atom_site_fract_x
 _atom_site_fract_y
 _atom_site_fract_z
 _atom_site_occupancy
  Li  Li1  2  0.003329  0.251060  0.874171  1
  Li  Li2  2  0.004428  0.755150  0.623800  1
  Li  Li3  2  0.493212  0.747907  0.872893  1
  Li  Li4  2  0.496889  0.250524  0.627556  1
  Li  Li5  1  0.500000  0.000000  0.500000  1
  Co  Co6  2  0.006150  0.998666  0.258431  1
  Co  Co7  2  0.493244  0.499209  0.248015  1
  Co  Co8  1  0.000000  0.500000  0.000000  1
  Co  Co9  1  0.000000  0.500000  0.500000  1
  Co  Co10  1  0.500000  0.000000  0.000000  1
  O  O11  2  0.001518  0.884512  0.415480  1
  O  O12  2  0.007503  0.381509  0.189934  1
  O  O13  2  0.009181  0.104751  0.070578  1
  O  O14  2  0.023650  0.384882  0.690050  1
  O  O15  2  0.466087  0.885247  0.694370  1
  O  O16  2  0.466114  0.888563  0.177242  1
  O  O17  2  0.479379  0.382227  0.438327  1
  O  O18  2  0.491511  0.617864  0.063956  1
