# generated using pymatgen
data_Li9Co7O16
_symmetry_space_group_name_H-M   C2/m
_cell_length_a   15.27691586
_cell_length_b   2.96791264
_cell_length_c   12.50291392
_cell_angle_alpha   90.00000000
_cell_angle_beta   90.78859513
_cell_angle_gamma   90.00000000
_symmetry_Int_Tables_number   12
_chemical_formula_structural   Li9Co7O16
_chemical_formula_sum   'Li18 Co14 O32'
_cell_volume   566.83532100
_cell_formula_units_Z   2
loop_
 _symmetry_equiv_pos_site_id
 _symmetry_equiv_pos_as_xyz
  1  'x, y, z'
  2  '-x, -y, -z'
  3  '-x, y, -z'
  4  'x, -y, z'
  5  'x+1/2, y+1/2, z'
  6  '-x+1/2, -y+1/2, -z'
  7  '-x+1/2, y+1/2, -z'
  8  'x+1/2, -y+1/2, z'
loop_
 _atom_site_type_symbol
 _atom_site_label
 _atom_site_symmetry_multiplicity
 _atom_site_fract_x
 _atom_site_fract_y
 _atom_site_fract_z
 _atom_site_occupancy
  Li  Li1  4  0.062472  0.000000  0.677956  1
  Li  Li2  4  0.063607  0.500000  0.189256  1
  Li  Li3  4  0.179652  0.500000  0.557530  1
  Li  Li4  4  0.187003  0.000000  0.061435  1
  Li  Li5  2  0.000000  0.500000  0.500000  1
  Co  Co6  4  0.121460  0.000000  0.379068  1
  Co  Co7  4  0.124454  0.500000  0.871784  1
  Co  Co8  4  0.247886  0.500000  0.248809  1
  Co  Co9  2  0.000000  0.000000  0.000000  1
  O  O10  4  0.032045  0.000000  0.849926  1
  O  O11  4  0.044596  0.500000  0.349217  1
  O  O12  4  0.093048  0.500000  0.022011  1
  O  O13  4  0.098529  0.000000  0.520128  1
  O  O14  4  0.158243  0.500000  0.722886  1
  O  O15  4  0.158329  0.000000  0.228923  1
  O  O16  4  0.206302  0.500000  0.397103  1
  O  O17  4  0.217975  0.000000  0.898082  1
