# generated using pymatgen
data_Li9Co7O16
_symmetry_space_group_name_H-M   P-1
_cell_length_a   5.79653469
_cell_length_b   5.87997021
_cell_length_c   9.71164385
_cell_angle_alpha   98.09342510
_cell_angle_beta   91.15522436
_cell_angle_gamma   119.09438616
_symmetry_Int_Tables_number   2
_chemical_formula_structural   Li9Co7O16
_chemical_formula_sum   'Li9 Co7 O16'
_cell_volume   284.85267233
_cell_formula_units_Z   1
loop_
 _symmetry_equiv_pos_site_id
 _symmetry_equiv_pos_as_xyz
  1  'x, y, z'
  2  '-x, -y, -z'
loop_
 _atom_site_type_symbol
 _atom_site_label
 _atom_site_symmetry_multiplicity
 _atom_site_fract_x
 _atom_site_fract_y
 _atom_site_fract_z
 _atom_site_occupancy
  Li  Li1  2  0.123349  0.246118  0.750663  1
  Li  Li2  2  0.248938  0.999692  0.499735  1
  Li  Li3  2  0.376398  0.751928  0.249026  1
  Li  Li4  1  0.000000  0.000000  0.000000  1
  Li  Li5  1  0.000000  0.500000  0.000000  1
  Li  Li6  1  0.500000  0.500000  0.000000  1
  Co  Co7  2  0.124084  0.757012  0.755927  1
  Co  Co8  2  0.247020  0.494517  0.500054  1
  Co  Co9  2  0.368236  0.242938  0.243115  1
  Co  Co10  1  0.500000  0.000000  0.000000  1
  O  O11  2  0.063332  0.609795  0.379663  1
  O  O12  2  0.067984  0.133338  0.371328  1
  O  O13  2  0.186095  0.368847  0.139318  1
  O  O14  2  0.221587  0.898767  0.117675  1
  O  O15  2  0.320090  0.102108  0.879989  1
  O  O16  2  0.325460  0.653168  0.882753  1
  O  O17  2  0.428280  0.856361  0.634205  1
  O  O18  2  0.437431  0.391472  0.620567  1
