# generated using pymatgen
data_Li9Co7O16
_symmetry_space_group_name_H-M   P-1
_cell_length_a   4.98744157
_cell_length_b   5.05689118
_cell_length_c   11.56761065
_cell_angle_alpha   90.35110482
_cell_angle_beta   90.71167916
_cell_angle_gamma   108.83982338
_symmetry_Int_Tables_number   2
_chemical_formula_structural   Li9Co7O16
_chemical_formula_sum   'Li9 Co7 O16'
_cell_volume   276.07868942
_cell_formula_units_Z   1
loop_
 _symmetry_equiv_pos_site_id
 _symmetry_equiv_pos_as_xyz
  1  'x, y, z'
  2  '-x, -y, -z'
loop_
 _atom_site_type_symbol
 _atom_site_label
 _atom_site_symmetry_multiplicity
 _atom_site_fract_x
 _atom_site_fract_y
 _atom_site_fract_z
 _atom_site_occupancy
  Li  Li1  2  0.001378  0.501428  0.248129  1
  Li  Li2  2  0.498964  0.498712  0.122781  1
  Li  Li3  2  0.499335  0.500386  0.377523  1
  Li  Li4  1  0.000000  0.500000  0.000000  1
  Li  Li5  1  0.000000  0.500000  0.500000  1
  Li  Li6  1  0.500000  0.000000  0.000000  1
  Co  Co7  2  0.001650  0.997116  0.375023  1
  Co  Co8  2  0.006020  0.000050  0.878522  1
  Co  Co9  2  0.496783  0.996182  0.243952  1
  Co  Co10  1  0.500000  0.000000  0.500000  1
  O  O11  2  0.213602  0.219957  0.998295  1
  O  O12  2  0.229493  0.227884  0.241781  1
  O  O13  2  0.233409  0.775696  0.870253  1
  O  O14  2  0.236089  0.229954  0.759340  1
  O  O15  2  0.242770  0.777999  0.131298  1
  O  O16  2  0.254483  0.772770  0.380633  1
  O  O17  2  0.254564  0.229693  0.500545  1
  O  O18  2  0.265620  0.779840  0.621823  1
