# generated using pymatgen
data_Li9Co7O16
_symmetry_space_group_name_H-M   C2/m
_cell_length_a   10.18893127
_cell_length_b   5.80156358
_cell_length_c   10.10269577
_cell_angle_alpha   90.00000000
_cell_angle_beta   109.76155636
_cell_angle_gamma   90.00000000
_symmetry_Int_Tables_number   12
_chemical_formula_structural   Li9Co7O16
_chemical_formula_sum   'Li18 Co14 O32'
_cell_volume   562.01816743
_cell_formula_units_Z   2
loop_
 _symmetry_equiv_pos_site_id
 _symmetry_equiv_pos_as_xyz
  1  'x, y, z'
  2  '-x, -y, -z'
  3  '-x, y, -z'
  4  'x, -y, z'
  5  'x+1/2, y+1/2, z'
  6  '-x+1/2, -y+1/2, -z'
  7  '-x+1/2, y+1/2, -z'
  8  'x+1/2, -y+1/2, z'
loop_
 _atom_site_type_symbol
 _atom_site_label
 _atom_site_symmetry_multiplicity
 _atom_site_fract_x
 _atom_site_fract_y
 _atom_site_fract_z
 _atom_site_occupancy
  Li  Li1  4  0.246415  0.000000  0.244825  1
  Li  Li2  4  0.247628  0.500000  0.246147  1
  Li  Li3  4  0.250000  0.250000  0.000000  1
  Li  Li4  4  0.250000  0.250000  0.500000  1
  Li  Li5  2  0.000000  0.500000  0.000000  1
  Co  Co6  8  0.001981  0.253421  0.756361  1
  Co  Co7  2  0.000000  0.000000  0.000000  1
  Co  Co8  2  0.000000  0.000000  0.500000  1
  Co  Co9  2  0.000000  0.500000  0.500000  1
  O  O10  8  0.112345  0.230109  0.120814  1
  O  O11  8  0.112554  0.235942  0.615475  1
  O  O12  4  0.104948  0.000000  0.373791  1
  O  O13  4  0.111152  0.500000  0.379347  1
  O  O14  4  0.115166  0.000000  0.882334  1
  O  O15  4  0.115706  0.500000  0.859155  1
