# generated using pymatgen
data_Li9Co7O16
_symmetry_space_group_name_H-M   P-1
_cell_length_a   2.92947283
_cell_length_b   10.10492163
_cell_length_c   10.65746858
_cell_angle_alpha   113.67183488
_cell_angle_beta   96.31317605
_cell_angle_gamma   91.00675969
_symmetry_Int_Tables_number   2
_chemical_formula_structural   Li9Co7O16
_chemical_formula_sum   'Li9 Co7 O16'
_cell_volume   286.52555120
_cell_formula_units_Z   1
loop_
 _symmetry_equiv_pos_site_id
 _symmetry_equiv_pos_as_xyz
  1  'x, y, z'
  2  '-x, -y, -z'
loop_
 _atom_site_type_symbol
 _atom_site_label
 _atom_site_symmetry_multiplicity
 _atom_site_fract_x
 _atom_site_fract_y
 _atom_site_fract_z
 _atom_site_occupancy
  Li  Li1  2  0.117606  0.183383  0.241231  1
  Li  Li2  2  0.125806  0.686060  0.248780  1
  Li  Li3  2  0.363081  0.565219  0.747200  1
  Li  Li4  2  0.383973  0.063967  0.752867  1
  Li  Li5  1  0.500000  0.000000  0.000000  1
  Co  Co6  2  0.002113  0.236024  0.996828  1
  Co  Co7  2  0.241624  0.127595  0.502148  1
  Co  Co8  2  0.255280  0.622558  0.496002  1
  Co  Co9  1  0.500000  0.500000  0.000000  1
  O  O10  2  0.035661  0.465880  0.101260  1
  O  O11  2  0.059731  0.950311  0.120662  1
  O  O12  2  0.181858  0.906825  0.385446  1
  O  O13  2  0.191771  0.412185  0.384883  1
  O  O14  2  0.296767  0.344724  0.619755  1
  O  O15  2  0.334875  0.837254  0.613170  1
  O  O16  2  0.427453  0.773680  0.882032  1
  O  O17  2  0.429729  0.299849  0.890644  1
