# generated using pymatgen
data_Li9Co7O16
_symmetry_space_group_name_H-M   P2/m
_cell_length_a   8.17014619
_cell_length_b   2.93391234
_cell_length_c   11.76433405
_cell_angle_alpha   90.00000000
_cell_angle_beta   90.92472571
_cell_angle_gamma   90.00000000
_symmetry_Int_Tables_number   10
_chemical_formula_structural   Li9Co7O16
_chemical_formula_sum   'Li9 Co7 O16'
_cell_volume   281.96015675
_cell_formula_units_Z   1
loop_
 _symmetry_equiv_pos_site_id
 _symmetry_equiv_pos_as_xyz
  1  'x, y, z'
  2  '-x, -y, -z'
  3  '-x, y, -z'
  4  'x, -y, z'
loop_
 _atom_site_type_symbol
 _atom_site_label
 _atom_site_symmetry_multiplicity
 _atom_site_fract_x
 _atom_site_fract_y
 _atom_site_fract_z
 _atom_site_occupancy
  Li  Li1  2  0.001768  0.500000  0.242257  1
  Li  Li2  2  0.236668  0.000000  0.877651  1
  Li  Li3  2  0.249273  0.000000  0.376329  1
  Li  Li4  1  0.000000  0.500000  0.000000  1
  Li  Li5  1  0.500000  0.500000  0.000000  1
  Li  Li6  1  0.500000  0.500000  0.500000  1
  Co  Co7  2  0.242967  0.000000  0.121582  1
  Co  Co8  2  0.252337  0.000000  0.625151  1
  Co  Co9  2  0.498796  0.500000  0.753761  1
  Co  Co10  1  0.000000  0.500000  0.500000  1
  O  O11  2  0.009003  0.000000  0.618153  1
  O  O12  2  0.024416  0.000000  0.126865  1
  O  O13  2  0.245077  0.500000  0.504036  1
  O  O14  2  0.250267  0.500000  0.016935  1
  O  O15  2  0.256955  0.500000  0.234497  1
  O  O16  2  0.259176  0.500000  0.748081  1
  O  O17  2  0.485190  0.000000  0.130616  1
  O  O18  2  0.494156  0.000000  0.632226  1
