# generated using pymatgen
data_Li9Co7O16
_symmetry_space_group_name_H-M   C2/m
_cell_length_a   9.89606931
_cell_length_b   3.00249740
_cell_length_c   19.79340843
_cell_angle_alpha   90.00000000
_cell_angle_beta   102.26565656
_cell_angle_gamma   90.00000000
_symmetry_Int_Tables_number   12
_chemical_formula_structural   Li9Co7O16
_chemical_formula_sum   'Li18 Co14 O32'
_cell_volume   574.69504595
_cell_formula_units_Z   2
loop_
 _symmetry_equiv_pos_site_id
 _symmetry_equiv_pos_as_xyz
  1  'x, y, z'
  2  '-x, -y, -z'
  3  '-x, y, -z'
  4  'x, -y, z'
  5  'x+1/2, y+1/2, z'
  6  '-x+1/2, -y+1/2, -z'
  7  '-x+1/2, y+1/2, -z'
  8  'x+1/2, -y+1/2, z'
loop_
 _atom_site_type_symbol
 _atom_site_label
 _atom_site_symmetry_multiplicity
 _atom_site_fract_x
 _atom_site_fract_y
 _atom_site_fract_z
 _atom_site_occupancy
  Li  Li1  4  0.248145  0.000000  0.061790  1
  Li  Li2  4  0.248315  0.500000  0.187017  1
  Li  Li3  4  0.248707  0.000000  0.562339  1
  Li  Li4  4  0.249968  0.000000  0.312331  1
  Li  Li5  2  0.000000  0.500000  0.000000  1
  Co  Co6  4  0.000225  0.500000  0.249027  1
  Co  Co7  4  0.000873  0.000000  0.119938  1
  Co  Co8  4  0.000926  0.000000  0.624701  1
  Co  Co9  2  0.000000  0.500000  0.500000  1
  O  O10  4  0.111348  0.000000  0.213223  1
  O  O11  4  0.113145  0.500000  0.840831  1
  O  O12  4  0.113692  0.500000  0.589810  1
  O  O13  4  0.113807  0.500000  0.096335  1
  O  O14  4  0.114310  0.000000  0.466668  1
  O  O15  4  0.116421  0.000000  0.715645  1
  O  O16  4  0.116462  0.500000  0.340506  1
  O  O17  4  0.116530  0.000000  0.959099  1
