# generated using pymatgen
data_Li9Co7O16
_symmetry_space_group_name_H-M   P-1
_cell_length_a   5.02975765
_cell_length_b   5.83783817
_cell_length_c   9.78829050
_cell_angle_alpha   90.15474776
_cell_angle_beta   99.63272328
_cell_angle_gamma   90.18354962
_symmetry_Int_Tables_number   2
_chemical_formula_structural   Li9Co7O16
_chemical_formula_sum   'Li9 Co7 O16'
_cell_volume   283.35738546
_cell_formula_units_Z   1
loop_
 _symmetry_equiv_pos_site_id
 _symmetry_equiv_pos_as_xyz
  1  'x, y, z'
  2  '-x, -y, -z'
loop_
 _atom_site_type_symbol
 _atom_site_label
 _atom_site_symmetry_multiplicity
 _atom_site_fract_x
 _atom_site_fract_y
 _atom_site_fract_z
 _atom_site_occupancy
  Li  Li1  2  0.248846  0.246951  0.755860  1
  Li  Li2  2  0.251184  0.502559  0.247830  1
  Li  Li3  2  0.251571  0.755468  0.754986  1
  Li  Li4  2  0.257433  0.998687  0.245289  1
  Li  Li5  1  0.500000  0.000000  0.000000  1
  Co  Co6  2  0.001817  0.244454  0.000566  1
  Co  Co7  2  0.496854  0.751577  0.498285  1
  Co  Co8  1  0.000000  0.000000  0.500000  1
  Co  Co9  1  0.000000  0.500000  0.500000  1
  Co  Co10  1  0.500000  0.500000  0.000000  1
  O  O11  2  0.101374  0.993099  0.882349  1
  O  O12  2  0.124227  0.769612  0.379954  1
  O  O13  2  0.126011  0.269319  0.388178  1
  O  O14  2  0.146096  0.493780  0.889684  1
  O  O15  2  0.360988  0.511081  0.610150  1
  O  O16  2  0.363985  0.728614  0.107842  1
  O  O17  2  0.365302  0.272550  0.109054  1
  O  O18  2  0.378619  0.009181  0.618201  1
