# generated using pymatgen
data_Li9Co7O16
_symmetry_space_group_name_H-M   P2/m
_cell_length_a   5.90665248
_cell_length_b   2.91909658
_cell_length_c   16.47768068
_cell_angle_alpha   90.00000000
_cell_angle_beta   91.07819792
_cell_angle_gamma   90.00000000
_symmetry_Int_Tables_number   10
_chemical_formula_structural   Li9Co7O16
_chemical_formula_sum   'Li9 Co7 O16'
_cell_volume   284.05933453
_cell_formula_units_Z   1
loop_
 _symmetry_equiv_pos_site_id
 _symmetry_equiv_pos_as_xyz
  1  'x, y, z'
  2  '-x, -y, -z'
  3  '-x, y, -z'
  4  'x, -y, z'
loop_
 _atom_site_type_symbol
 _atom_site_label
 _atom_site_symmetry_multiplicity
 _atom_site_fract_x
 _atom_site_fract_y
 _atom_site_fract_z
 _atom_site_occupancy
  Li  Li1  2  0.001282  0.500000  0.753112  1
  Li  Li2  2  0.244368  0.000000  0.878233  1
  Li  Li3  2  0.249152  0.000000  0.374650  1
  Li  Li4  1  0.000000  0.500000  0.000000  1
  Li  Li5  1  0.500000  0.500000  0.000000  1
  Li  Li6  1  0.500000  0.500000  0.500000  1
  Co  Co7  2  0.239720  0.000000  0.119198  1
  Co  Co8  2  0.251072  0.000000  0.627268  1
  Co  Co9  2  0.497118  0.500000  0.754123  1
  Co  Co10  1  0.000000  0.500000  0.500000  1
  O  O11  2  0.018113  0.500000  0.124732  1
  O  O12  2  0.028706  0.500000  0.623139  1
  O  O13  2  0.238793  0.000000  0.499825  1
  O  O14  2  0.252541  0.000000  0.012562  1
  O  O15  2  0.262118  0.000000  0.243492  1
  O  O16  2  0.263944  0.000000  0.751174  1
  O  O17  2  0.477846  0.500000  0.630927  1
  O  O18  2  0.488444  0.500000  0.128905  1
