# generated using pymatgen
data_Li9Co7O16
_symmetry_space_group_name_H-M   P-1
_cell_length_a   5.87287583
_cell_length_b   6.62174738
_cell_length_c   7.65027861
_cell_angle_alpha   90.22819632
_cell_angle_beta   100.53900995
_cell_angle_gamma   103.16769321
_symmetry_Int_Tables_number   2
_chemical_formula_structural   Li9Co7O16
_chemical_formula_sum   'Li9 Co7 O16'
_cell_volume   284.47628580
_cell_formula_units_Z   1
loop_
 _symmetry_equiv_pos_site_id
 _symmetry_equiv_pos_as_xyz
  1  'x, y, z'
  2  '-x, -y, -z'
loop_
 _atom_site_type_symbol
 _atom_site_label
 _atom_site_symmetry_multiplicity
 _atom_site_fract_x
 _atom_site_fract_y
 _atom_site_fract_z
 _atom_site_occupancy
  Li  Li1  2  0.124477  0.625032  0.876884  1
  Li  Li2  2  0.254567  0.743296  0.259948  1
  Li  Li3  2  0.373935  0.868191  0.622957  1
  Li  Li4  1  0.000000  0.500000  0.500000  1
  Li  Li5  1  0.500000  0.000000  0.000000  1
  Li  Li6  1  0.500000  0.500000  0.500000  1
  Co  Co7  2  0.131452  0.129555  0.375604  1
  Co  Co8  2  0.251569  0.256447  0.743415  1
  Co  Co9  2  0.380094  0.376873  0.127181  1
  Co  Co10  1  0.000000  0.000000  0.000000  1
  O  O11  2  0.055175  0.813779  0.434159  1
  O  O12  2  0.092808  0.307596  0.944385  1
  O  O13  2  0.163841  0.942786  0.812820  1
  O  O14  2  0.201191  0.424447  0.294000  1
  O  O15  2  0.315873  0.087302  0.181366  1
  O  O16  2  0.335964  0.561131  0.707250  1
  O  O17  2  0.413781  0.184673  0.565625  1
  O  O18  2  0.446530  0.665001  0.060404  1
