# generated using pymatgen
data_Li9Co7O16
_symmetry_space_group_name_H-M   P2/m
_cell_length_a   5.05037690
_cell_length_b   2.96559442
_cell_length_c   18.98924097
_cell_angle_alpha   90.00000000
_cell_angle_beta   92.44970478
_cell_angle_gamma   90.00000000
_symmetry_Int_Tables_number   10
_chemical_formula_structural   Li9Co7O16
_chemical_formula_sum   'Li9 Co7 O16'
_cell_volume   284.14896601
_cell_formula_units_Z   1
loop_
 _symmetry_equiv_pos_site_id
 _symmetry_equiv_pos_as_xyz
  1  'x, y, z'
  2  '-x, -y, -z'
  3  '-x, y, -z'
  4  'x, -y, z'
loop_
 _atom_site_type_symbol
 _atom_site_label
 _atom_site_symmetry_multiplicity
 _atom_site_fract_x
 _atom_site_fract_y
 _atom_site_fract_z
 _atom_site_occupancy
  Li  Li1  2  0.123779  0.500000  0.873544  1
  Li  Li2  2  0.249380  0.000000  0.749365  1
  Li  Li3  2  0.370977  0.500000  0.625482  1
  Li  Li4  1  0.000000  0.000000  0.000000  1
  Li  Li5  1  0.000000  0.500000  0.500000  1
  Li  Li6  1  0.500000  0.000000  0.500000  1
  Co  Co7  2  0.126462  0.000000  0.379936  1
  Co  Co8  2  0.243259  0.500000  0.251135  1
  Co  Co9  2  0.368832  0.000000  0.125437  1
  Co  Co10  1  0.500000  0.500000  0.000000  1
  O  O11  2  0.045898  0.500000  0.689396  1
  O  O12  2  0.084853  0.000000  0.187291  1
  O  O13  2  0.151771  0.000000  0.570459  1
  O  O14  2  0.199415  0.500000  0.066193  1
  O  O15  2  0.303796  0.500000  0.433056  1
  O  O16  2  0.343856  0.000000  0.937159  1
  O  O17  2  0.405715  0.000000  0.314735  1
  O  O18  2  0.460214  0.500000  0.812972  1
