# generated using pymatgen
data_Li9Co7O16
_symmetry_space_group_name_H-M   P-1
_cell_length_a   3.00844634
_cell_length_b   8.02061010
_cell_length_c   11.99190775
_cell_angle_alpha   88.96066758
_cell_angle_beta   88.64506991
_cell_angle_gamma   89.87161004
_symmetry_Int_Tables_number   2
_chemical_formula_structural   Li9Co7O16
_chemical_formula_sum   'Li9 Co7 O16'
_cell_volume   289.23066611
_cell_formula_units_Z   1
loop_
 _symmetry_equiv_pos_site_id
 _symmetry_equiv_pos_as_xyz
  1  'x, y, z'
  2  '-x, -y, -z'
loop_
 _atom_site_type_symbol
 _atom_site_label
 _atom_site_symmetry_multiplicity
 _atom_site_fract_x
 _atom_site_fract_y
 _atom_site_fract_z
 _atom_site_occupancy
  Li  Li1  2  0.000427  0.750315  0.875976  1
  Li  Li2  2  0.002274  0.244271  0.622800  1
  Li  Li3  2  0.499076  0.002041  0.249121  1
  Li  Li4  1  0.500000  0.000000  0.500000  1
  Li  Li5  1  0.500000  0.500000  0.000000  1
  Li  Li6  1  0.500000  0.500000  0.500000  1
  Co  Co7  2  0.000894  0.250809  0.874607  1
  Co  Co8  2  0.002303  0.758446  0.619826  1
  Co  Co9  2  0.493994  0.497138  0.251008  1
  Co  Co10  1  0.500000  0.000000  0.000000  1
  O  O11  2  0.001908  0.975074  0.627653  1
  O  O12  2  0.002893  0.490212  0.870609  1
  O  O13  2  0.009092  0.009280  0.880360  1
  O  O14  2  0.012235  0.519424  0.631570  1
  O  O15  2  0.459354  0.259882  0.256322  1
  O  O16  2  0.464257  0.749322  0.510051  1
  O  O17  2  0.490402  0.740265  0.246977  1
  O  O18  2  0.494598  0.241125  0.995488  1
