# generated using pymatgen
data_Li9Co7O16
_symmetry_space_group_name_H-M   P-1
_cell_length_a   2.94181454
_cell_length_b   10.03008785
_cell_length_c   10.19155931
_cell_angle_alpha   108.05437322
_cell_angle_beta   91.02614495
_cell_angle_gamma   91.86214911
_symmetry_Int_Tables_number   2
_chemical_formula_structural   Li9Co7O16
_chemical_formula_sum   'Li9 Co7 O16'
_cell_volume   285.63742664
_cell_formula_units_Z   1
loop_
 _symmetry_equiv_pos_site_id
 _symmetry_equiv_pos_as_xyz
  1  'x, y, z'
  2  '-x, -y, -z'
loop_
 _atom_site_type_symbol
 _atom_site_label
 _atom_site_symmetry_multiplicity
 _atom_site_fract_x
 _atom_site_fract_y
 _atom_site_fract_z
 _atom_site_occupancy
  Li  Li1  2  0.000562  0.751944  0.749077  1
  Li  Li2  2  0.007514  0.746892  0.249760  1
  Li  Li3  2  0.497584  0.000757  0.751283  1
  Li  Li4  2  0.498940  0.500050  0.745742  1
  Li  Li5  1  0.000000  0.500000  0.500000  1
  Co  Co6  2  0.495033  0.257702  0.499637  1
  Co  Co7  2  0.499822  0.249592  0.000120  1
  Co  Co8  1  0.000000  0.000000  0.000000  1
  Co  Co9  1  0.000000  0.000000  0.500000  1
  Co  Co10  1  0.000000  0.500000  0.000000  1
  O  O11  2  0.000937  0.630462  0.881775  1
  O  O12  2  0.002594  0.132474  0.881687  1
  O  O13  2  0.031769  0.636473  0.385259  1
  O  O14  2  0.033120  0.120220  0.388587  1
  O  O15  2  0.487078  0.124609  0.604704  1
  O  O16  2  0.492625  0.879483  0.883185  1
  O  O17  2  0.495872  0.618700  0.115749  1
  O  O18  2  0.497829  0.643233  0.613980  1
