# generated using pymatgen
data_Li9Co7O16
_symmetry_space_group_name_H-M   P-1
_cell_length_a   2.99874232
_cell_length_b   5.97340054
_cell_length_c   16.03808590
_cell_angle_alpha   88.94703482
_cell_angle_beta   89.91619855
_cell_angle_gamma   88.74163719
_symmetry_Int_Tables_number   2
_chemical_formula_structural   Li9Co7O16
_chemical_formula_sum   'Li9 Co7 O16'
_cell_volume   287.16729933
_cell_formula_units_Z   1
loop_
 _symmetry_equiv_pos_site_id
 _symmetry_equiv_pos_as_xyz
  1  'x, y, z'
  2  '-x, -y, -z'
loop_
 _atom_site_type_symbol
 _atom_site_label
 _atom_site_symmetry_multiplicity
 _atom_site_fract_x
 _atom_site_fract_y
 _atom_site_fract_z
 _atom_site_occupancy
  Li  Li1  2  0.003107  0.999638  0.749444  1
  Li  Li2  2  0.499089  0.755848  0.377351  1
  Li  Li3  2  0.499497  0.750097  0.875220  1
  Li  Li4  1  0.000000  0.000000  0.500000  1
  Li  Li5  1  0.000000  0.500000  0.000000  1
  Li  Li6  1  0.000000  0.500000  0.500000  1
  Co  Co7  2  0.003295  0.498517  0.251367  1
  Co  Co8  2  0.498429  0.760734  0.620721  1
  Co  Co9  2  0.499040  0.749028  0.125306  1
  Co  Co10  1  0.000000  0.000000  0.000000  1
  O  O11  2  0.006469  0.507086  0.130219  1
  O  O12  2  0.006791  0.008689  0.879301  1
  O  O13  2  0.034639  0.980392  0.625314  1
  O  O14  2  0.039659  0.488158  0.370557  1
  O  O15  2  0.491260  0.738070  0.740709  1
  O  O16  2  0.494004  0.240644  0.995456  1
  O  O17  2  0.498633  0.739897  0.245196  1
  O  O18  2  0.499283  0.747212  0.512304  1
