# generated using pymatgen
data_Li9Co7O16
_symmetry_space_group_name_H-M   C2/m
_cell_length_a   21.16030192
_cell_length_b   2.90724457
_cell_length_c   10.01536346
_cell_angle_alpha   90.00000000
_cell_angle_beta   114.38856213
_cell_angle_gamma   90.00000000
_symmetry_Int_Tables_number   12
_chemical_formula_structural   Li9Co7O16
_chemical_formula_sum   'Li18 Co14 O32'
_cell_volume   561.14746392
_cell_formula_units_Z   2
loop_
 _symmetry_equiv_pos_site_id
 _symmetry_equiv_pos_as_xyz
  1  'x, y, z'
  2  '-x, -y, -z'
  3  '-x, y, -z'
  4  'x, -y, z'
  5  'x+1/2, y+1/2, z'
  6  '-x+1/2, -y+1/2, -z'
  7  '-x+1/2, y+1/2, -z'
  8  'x+1/2, -y+1/2, z'
loop_
 _atom_site_type_symbol
 _atom_site_label
 _atom_site_symmetry_multiplicity
 _atom_site_fract_x
 _atom_site_fract_y
 _atom_site_fract_z
 _atom_site_occupancy
  Li  Li1  4  0.121472  0.000000  0.680630  1
  Li  Li2  4  0.124390  0.500000  0.436432  1
  Li  Li3  4  0.124466  0.500000  0.937886  1
  Li  Li4  4  0.125512  0.000000  0.188747  1
  Li  Li5  2  0.000000  0.500000  0.500000  1
  Co  Co6  4  0.001435  0.000000  0.260391  1
  Co  Co7  4  0.249526  0.000000  0.124173  1
  Co  Co8  4  0.249975  0.500000  0.375160  1
  Co  Co9  2  0.000000  0.500000  0.000000  1
  O  O10  4  0.052058  0.000000  0.963842  1
  O  O11  4  0.054261  0.500000  0.204735  1
  O  O12  4  0.058400  0.500000  0.726382  1
  O  O13  4  0.058955  0.000000  0.448884  1
  O  O14  4  0.190741  0.000000  0.407218  1
  O  O15  4  0.192497  0.500000  0.155304  1
  O  O16  4  0.192561  0.500000  0.668636  1
  O  O17  4  0.195631  0.000000  0.917680  1
