# generated using pymatgen
data_Li9Co7O16
_symmetry_space_group_name_H-M   C2/m
_cell_length_a   38.74140439
_cell_length_b   2.99364465
_cell_length_c   4.97253427
_cell_angle_alpha   90.00000000
_cell_angle_beta   94.75327398
_cell_angle_gamma   90.00000000
_symmetry_Int_Tables_number   12
_chemical_formula_structural   Li9Co7O16
_chemical_formula_sum   'Li18 Co14 O32'
_cell_volume   574.72114971
_cell_formula_units_Z   2
loop_
 _symmetry_equiv_pos_site_id
 _symmetry_equiv_pos_as_xyz
  1  'x, y, z'
  2  '-x, -y, -z'
  3  '-x, y, -z'
  4  'x, -y, z'
  5  'x+1/2, y+1/2, z'
  6  '-x+1/2, -y+1/2, -z'
  7  '-x+1/2, y+1/2, -z'
  8  'x+1/2, -y+1/2, z'
loop_
 _atom_site_type_symbol
 _atom_site_label
 _atom_site_symmetry_multiplicity
 _atom_site_fract_x
 _atom_site_fract_y
 _atom_site_fract_z
 _atom_site_occupancy
  Li  Li1  4  0.060508  0.500000  0.188244  1
  Li  Li2  4  0.060794  0.000000  0.680229  1
  Li  Li3  4  0.187395  0.500000  0.561208  1
  Li  Li4  4  0.187428  0.000000  0.061423  1
  Li  Li5  2  0.000000  0.500000  0.500000  1
  Co  Co6  4  0.124380  0.000000  0.373725  1
  Co  Co7  4  0.124551  0.500000  0.874366  1
  Co  Co8  4  0.249992  0.000000  0.749988  1
  Co  Co9  2  0.000000  0.000000  0.000000  1
  O  O10  4  0.026566  0.500000  0.863200  1
  O  O11  4  0.027710  0.000000  0.304464  1
  O  O12  4  0.095002  0.500000  0.540390  1
  O  O13  4  0.095789  0.000000  0.038167  1
  O  O14  4  0.153505  0.000000  0.707991  1
  O  O15  4  0.153594  0.500000  0.209350  1
  O  O16  4  0.221081  0.500000  0.914785  1
  O  O17  4  0.221103  0.000000  0.414739  1
