# generated using pymatgen
data_Li9Co7O16
_symmetry_space_group_name_H-M   P2/m
_cell_length_a   10.02173352
_cell_length_b   2.87929767
_cell_length_c   10.11429603
_cell_angle_alpha   90.00000000
_cell_angle_beta   108.63336364
_cell_angle_gamma   90.00000000
_symmetry_Int_Tables_number   10
_chemical_formula_structural   Li9Co7O16
_chemical_formula_sum   'Li9 Co7 O16'
_cell_volume   276.55538309
_cell_formula_units_Z   1
loop_
 _symmetry_equiv_pos_site_id
 _symmetry_equiv_pos_as_xyz
  1  'x, y, z'
  2  '-x, -y, -z'
  3  '-x, y, -z'
  4  'x, -y, z'
loop_
 _atom_site_type_symbol
 _atom_site_label
 _atom_site_symmetry_multiplicity
 _atom_site_fract_x
 _atom_site_fract_y
 _atom_site_fract_z
 _atom_site_occupancy
  Li  Li1  2  0.000077  0.000000  0.748927  1
  Li  Li2  2  0.249024  0.500000  0.249174  1
  Li  Li3  2  0.253327  0.500000  0.754609  1
  Li  Li4  2  0.498248  0.000000  0.755512  1
  Li  Li5  1  0.500000  0.500000  0.000000  1
  Co  Co6  2  0.248822  0.000000  0.498909  1
  Co  Co7  2  0.254663  0.000000  0.999979  1
  Co  Co8  1  0.000000  0.500000  0.000000  1
  Co  Co9  1  0.000000  0.500000  0.500000  1
  Co  Co10  1  0.500000  0.500000  0.500000  1
  O  O11  2  0.117682  0.000000  0.103592  1
  O  O12  2  0.123269  0.000000  0.620516  1
  O  O13  2  0.127374  0.500000  0.377839  1
  O  O14  2  0.132873  0.500000  0.896986  1
  O  O15  2  0.356695  0.500000  0.108912  1
  O  O16  2  0.359996  0.000000  0.885731  1
  O  O17  2  0.379858  0.500000  0.614669  1
  O  O18  2  0.382190  0.000000  0.384274  1
