# generated using pymatgen
data_Li9Co7O16
_symmetry_space_group_name_H-M   P-1
_cell_length_a   4.91467266
_cell_length_b   5.74210271
_cell_length_c   9.88780040
_cell_angle_alpha   89.07118493
_cell_angle_beta   80.55879137
_cell_angle_gamma   73.30727936
_symmetry_Int_Tables_number   2
_chemical_formula_structural   Li9Co7O16
_chemical_formula_sum   'Li9 Co7 O16'
_cell_volume   263.51867492
_cell_formula_units_Z   1
loop_
 _symmetry_equiv_pos_site_id
 _symmetry_equiv_pos_as_xyz
  1  'x, y, z'
  2  '-x, -y, -z'
loop_
 _atom_site_type_symbol
 _atom_site_label
 _atom_site_symmetry_multiplicity
 _atom_site_fract_x
 _atom_site_fract_y
 _atom_site_fract_z
 _atom_site_occupancy
  Li  Li1  2  0.000585  0.624857  0.374874  1
  Li  Li2  2  0.005540  0.868365  0.121583  1
  Li  Li3  2  0.497221  0.253027  0.755933  1
  Li  Li4  1  0.500000  0.000000  0.000000  1
  Li  Li5  1  0.500000  0.500000  0.000000  1
  Li  Li6  1  0.500000  0.500000  0.500000  1
  Co  Co7  2  0.000724  0.623543  0.876656  1
  Co  Co8  2  0.000918  0.874242  0.625485  1
  Co  Co9  2  0.499706  0.254538  0.245357  1
  Co  Co10  1  0.500000  0.000000  0.500000  1
  O  O11  2  0.222298  0.328218  0.943540  1
  O  O12  2  0.238991  0.836675  0.446108  1
  O  O13  2  0.241447  0.083965  0.196374  1
  O  O14  2  0.243488  0.584273  0.695094  1
  O  O15  2  0.252743  0.532314  0.191630  1
  O  O16  2  0.255335  0.801096  0.918903  1
  O  O17  2  0.261656  0.288149  0.428474  1
  O  O18  2  0.265072  0.033568  0.678611  1
