# generated using pymatgen
data_Li9Co7O16
_symmetry_space_group_name_H-M   C2/m
_cell_length_a   19.16666880
_cell_length_b   2.88046077
_cell_length_c   9.98940279
_cell_angle_alpha   90.00000000
_cell_angle_beta   94.45096884
_cell_angle_gamma   90.00000000
_symmetry_Int_Tables_number   12
_chemical_formula_structural   Li9Co7O16
_chemical_formula_sum   'Li18 Co14 O32'
_cell_volume   549.84004310
_cell_formula_units_Z   2
loop_
 _symmetry_equiv_pos_site_id
 _symmetry_equiv_pos_as_xyz
  1  'x, y, z'
  2  '-x, -y, -z'
  3  '-x, y, -z'
  4  'x, -y, z'
  5  'x+1/2, y+1/2, z'
  6  '-x+1/2, -y+1/2, -z'
  7  '-x+1/2, y+1/2, -z'
  8  'x+1/2, -y+1/2, z'
loop_
 _atom_site_type_symbol
 _atom_site_label
 _atom_site_symmetry_multiplicity
 _atom_site_fract_x
 _atom_site_fract_y
 _atom_site_fract_z
 _atom_site_occupancy
  Li  Li1  4  0.119694  0.000000  0.444807  1
  Li  Li2  4  0.121888  0.500000  0.684974  1
  Li  Li3  4  0.124025  0.000000  0.935465  1
  Li  Li4  4  0.124559  0.500000  0.186758  1
  Li  Li5  2  0.000000  0.500000  0.500000  1
  Co  Co6  4  0.000396  0.000000  0.253772  1
  Co  Co7  4  0.248514  0.000000  0.625060  1
  Co  Co8  4  0.248588  0.500000  0.876202  1
  Co  Co9  2  0.000000  0.500000  0.000000  1
  O  O10  4  0.051316  0.500000  0.841837  1
  O  O11  4  0.052674  0.000000  0.089889  1
  O  O12  4  0.055297  0.500000  0.328742  1
  O  O13  4  0.056370  0.000000  0.612175  1
  O  O14  4  0.188845  0.500000  0.530038  1
  O  O15  4  0.191251  0.000000  0.787496  1
  O  O16  4  0.193164  0.500000  0.027237  1
  O  O17  4  0.194126  0.000000  0.272822  1
