# generated using pymatgen
data_Li9Co7O16
_symmetry_space_group_name_H-M   P-1
_cell_length_a   5.72772973
_cell_length_b   5.79275333
_cell_length_c   9.71999248
_cell_angle_alpha   91.38937455
_cell_angle_beta   98.25389167
_cell_angle_gamma   119.52344590
_symmetry_Int_Tables_number   2
_chemical_formula_structural   Li9Co7O16
_chemical_formula_sum   'Li9 Co7 O16'
_cell_volume   276.02551555
_cell_formula_units_Z   1
loop_
 _symmetry_equiv_pos_site_id
 _symmetry_equiv_pos_as_xyz
  1  'x, y, z'
  2  '-x, -y, -z'
loop_
 _atom_site_type_symbol
 _atom_site_label
 _atom_site_symmetry_multiplicity
 _atom_site_fract_x
 _atom_site_fract_y
 _atom_site_fract_z
 _atom_site_occupancy
  Li  Li1  2  0.251715  0.875263  0.249226  1
  Li  Li2  2  0.254248  0.621354  0.751218  1
  Li  Li3  2  0.254259  0.133041  0.750823  1
  Li  Li4  2  0.256042  0.376311  0.252250  1
  Li  Li5  1  0.500000  0.500000  0.000000  1
  Co  Co6  2  0.000451  0.750184  0.499914  1
  Co  Co7  2  0.499795  0.249387  0.499916  1
  Co  Co8  1  0.000000  0.000000  0.000000  1
  Co  Co9  1  0.000000  0.500000  0.000000  1
  Co  Co10  1  0.500000  0.000000  0.000000  1
  O  O11  2  0.111029  0.317878  0.889199  1
  O  O12  2  0.132699  0.803044  0.890241  1
  O  O13  2  0.139470  0.069274  0.383994  1
  O  O14  2  0.141875  0.568773  0.385033  1
  O  O15  2  0.353404  0.159883  0.104552  1
  O  O16  2  0.362367  0.703680  0.104834  1
  O  O17  2  0.375903  0.919632  0.619789  1
  O  O18  2  0.377188  0.420706  0.621237  1
