# generated using pymatgen
data_Li9Co15O28
_symmetry_space_group_name_H-M   P-1
_cell_length_a   7.84697980
_cell_length_b   8.25661108
_cell_length_c   8.67027760
_cell_angle_alpha   105.34695727
_cell_angle_beta   104.24673700
_cell_angle_gamma   104.31122994
_symmetry_Int_Tables_number   2
_chemical_formula_structural   Li9Co15O28
_chemical_formula_sum   'Li9 Co15 O28'
_cell_volume   494.87139014
_cell_formula_units_Z   1
loop_
 _symmetry_equiv_pos_site_id
 _symmetry_equiv_pos_as_xyz
  1  'x, y, z'
  2  '-x, -y, -z'
loop_
 _atom_site_type_symbol
 _atom_site_label
 _atom_site_symmetry_multiplicity
 _atom_site_fract_x
 _atom_site_fract_y
 _atom_site_fract_z
 _atom_site_occupancy
  Li  Li1  2  0.134882  0.432242  0.568307  1
  Li  Li2  2  0.215827  0.144112  0.356069  1
  Li  Li3  2  0.341857  0.584051  0.927133  1
  Li  Li4  2  0.434992  0.286007  0.714163  1
  Li  Li5  1  0.500000  0.000000  0.500000  1
  Co  Co6  2  0.073319  0.216336  0.785110  1
  Co  Co7  2  0.133951  0.925921  0.567476  1
  Co  Co8  2  0.210929  0.641631  0.354051  1
  Co  Co9  2  0.287951  0.361400  0.144306  1
  Co  Co10  2  0.357684  0.065795  0.921531  1
  Co  Co11  2  0.425400  0.783587  0.707770  1
  Co  Co12  1  0.000000  0.000000  0.000000  1
  Co  Co13  1  0.000000  0.500000  0.000000  1
  Co  Co14  1  0.500000  0.500000  0.500000  1
  O  O15  2  0.028526  0.259583  0.995452  1
  O  O16  2  0.071164  0.446327  0.796336  1
  O  O17  2  0.072519  0.986105  0.776236  1
  O  O18  2  0.124229  0.161742  0.575105  1
  O  O19  2  0.150196  0.691784  0.553346  1
  O  O20  2  0.182550  0.875552  0.358144  1
  O  O21  2  0.243747  0.415711  0.365352  1
  O  O22  2  0.275081  0.588030  0.151946  1
  O  O23  2  0.284786  0.127288  0.130551  1
  O  O24  2  0.332259  0.312352  0.921780  1
  O  O25  2  0.381426  0.830550  0.918721  1
  O  O26  2  0.393019  0.023193  0.702618  1
  O  O27  2  0.447911  0.541960  0.711716  1
  O  O28  2  0.498977  0.258540  0.489850  1
