# generated using pymatgen
data_Li9Co7O16
_symmetry_space_group_name_H-M   P2/m
_cell_length_a   4.97781616
_cell_length_b   2.99685152
_cell_length_c   19.29472541
_cell_angle_alpha   90.00000000
_cell_angle_beta   92.25975471
_cell_angle_gamma   90.00000000
_symmetry_Int_Tables_number   10
_chemical_formula_structural   Li9Co7O16
_chemical_formula_sum   'Li9 Co7 O16'
_cell_volume   287.61055192
_cell_formula_units_Z   1
loop_
 _symmetry_equiv_pos_site_id
 _symmetry_equiv_pos_as_xyz
  1  'x, y, z'
  2  '-x, -y, -z'
  3  '-x, y, -z'
  4  'x, -y, z'
loop_
 _atom_site_type_symbol
 _atom_site_label
 _atom_site_symmetry_multiplicity
 _atom_site_fract_x
 _atom_site_fract_y
 _atom_site_fract_z
 _atom_site_occupancy
  Li  Li1  2  0.118963  0.000000  0.877833  1
  Li  Li2  2  0.125474  0.500000  0.375032  1
  Li  Li3  2  0.374368  0.000000  0.624908  1
  Li  Li4  2  0.375411  0.500000  0.121743  1
  Li  Li5  1  0.000000  0.500000  0.000000  1
  Co  Co6  2  0.249639  0.500000  0.750282  1
  Co  Co7  2  0.250550  0.000000  0.249427  1
  Co  Co8  1  0.000000  0.000000  0.500000  1
  Co  Co9  1  0.500000  0.000000  0.000000  1
  Co  Co10  1  0.500000  0.500000  0.500000  1
  O  O11  2  0.053283  0.000000  0.692748  1
  O  O12  2  0.053585  0.500000  0.190638  1
  O  O13  2  0.188437  0.500000  0.557220  1
  O  O14  2  0.224267  0.000000  0.055552  1
  O  O15  2  0.311536  0.000000  0.442874  1
  O  O16  2  0.336031  0.500000  0.946816  1
  O  O17  2  0.443525  0.000000  0.807621  1
  O  O18  2  0.445547  0.500000  0.307440  1
