# generated using pymatgen
data_Li9Co7O16
_symmetry_space_group_name_H-M   P1
_cell_length_a   2.97186942
_cell_length_b   5.06022575
_cell_length_c   19.00736200
_cell_angle_alpha   92.80202254
_cell_angle_beta   91.45309845
_cell_angle_gamma   90.75393543
_symmetry_Int_Tables_number   1
_chemical_formula_structural   Li9Co7O16
_chemical_formula_sum   'Li9 Co7 O16'
_cell_volume   285.37575497
_cell_formula_units_Z   1
loop_
 _symmetry_equiv_pos_site_id
 _symmetry_equiv_pos_as_xyz
  1  'x, y, z'
loop_
 _atom_site_type_symbol
 _atom_site_label
 _atom_site_symmetry_multiplicity
 _atom_site_fract_x
 _atom_site_fract_y
 _atom_site_fract_z
 _atom_site_occupancy
  Li  Li1  1  0.495556  0.752435  0.749828  1
  Li  Li2  1  0.498732  0.000431  0.501169  1
  Li  Li3  1  0.499770  0.125126  0.875215  1
  Li  Li4  1  0.501838  0.248634  0.248385  1
  Li  Li5  1  0.503779  0.497541  0.000434  1
  Li  Li6  1  0.997537  0.874544  0.625823  1
  Li  Li7  1  0.998259  0.375968  0.124077  1
  Li  Li8  1  0.999782  0.624715  0.875175  1
  Li  Li9  1  0.999856  0.126425  0.375540  1
  Co  Co10  1  0.007943  0.756471  0.249090  1
  Co  Co11  1  0.489579  0.881988  0.124312  1
  Co  Co12  1  0.494046  0.370489  0.625598  1
  Co  Co13  1  0.513764  0.623412  0.374616  1
  Co  Co14  1  0.998483  0.000107  0.995095  1
  Co  Co15  1  0.998977  0.493455  0.500524  1
  Co  Co16  1  0.999305  0.248725  0.755190  1
  O  O17  1  0.000194  0.280339  0.945165  1
  O  O18  1  0.001809  0.529902  0.689099  1
  O  O19  1  0.006146  0.783891  0.436850  1
  O  O20  1  0.024015  0.462418  0.312518  1
  O  O21  1  0.450324  0.666367  0.563022  1
  O  O22  1  0.459264  0.589760  0.187543  1
  O  O23  1  0.459357  0.168912  0.062784  1
  O  O24  1  0.465846  0.428620  0.808489  1
  O  O25  1  0.531771  0.821010  0.941913  1
  O  O26  1  0.536079  0.324515  0.440267  1
  O  O27  1  0.542118  0.082255  0.687477  1
  O  O28  1  0.554205  0.918511  0.308356  1
  O  O29  1  0.987019  0.720739  0.061196  1
  O  O30  1  0.989555  0.207359  0.563002  1
  O  O31  1  0.995549  0.045671  0.187141  1
  O  O32  1  0.999549  0.969272  0.805107  1
