# generated using pymatgen
data_Li9Co7O16
_symmetry_space_group_name_H-M   C2/m
_cell_length_a   20.39038157
_cell_length_b   2.92964575
_cell_length_c   9.85682163
_cell_angle_alpha   90.00000000
_cell_angle_beta   106.97017726
_cell_angle_gamma   90.00000000
_symmetry_Int_Tables_number   12
_chemical_formula_structural   Li9Co7O16
_chemical_formula_sum   'Li18 Co14 O32'
_cell_volume   563.17416240
_cell_formula_units_Z   2
loop_
 _symmetry_equiv_pos_site_id
 _symmetry_equiv_pos_as_xyz
  1  'x, y, z'
  2  '-x, -y, -z'
  3  '-x, y, -z'
  4  'x, -y, z'
  5  'x+1/2, y+1/2, z'
  6  '-x+1/2, -y+1/2, -z'
  7  '-x+1/2, y+1/2, -z'
  8  'x+1/2, -y+1/2, z'
loop_
 _atom_site_type_symbol
 _atom_site_label
 _atom_site_symmetry_multiplicity
 _atom_site_fract_x
 _atom_site_fract_y
 _atom_site_fract_z
 _atom_site_occupancy
  Li  Li1  4  0.058813  0.500000  0.319624  1
  Li  Li2  4  0.061907  0.000000  0.807682  1
  Li  Li3  4  0.187403  0.000000  0.441659  1
  Li  Li4  4  0.187858  0.500000  0.939591  1
  Li  Li5  2  0.000000  0.000000  0.500000  1
  Co  Co6  4  0.121451  0.500000  0.624220  1
  Co  Co7  4  0.124277  0.000000  0.125224  1
  Co  Co8  4  0.249083  0.500000  0.254599  1
  Co  Co9  2  0.000000  0.500000  0.000000  1
  O  O10  4  0.033647  0.000000  0.151359  1
  O  O11  4  0.039192  0.500000  0.656972  1
  O  O12  4  0.089952  0.500000  0.977711  1
  O  O13  4  0.098205  0.000000  0.492287  1
  O  O14  4  0.156064  0.000000  0.761342  1
  O  O15  4  0.159095  0.500000  0.278090  1
  O  O16  4  0.215292  0.500000  0.601674  1
  O  O17  4  0.215938  0.000000  0.098376  1
