# generated using pymatgen
data_Li9Mn7O16
_symmetry_space_group_name_H-M   C2/m
_cell_length_a   10.68453286
_cell_length_b   5.74549161
_cell_length_c   10.55815982
_cell_angle_alpha   90.00000000
_cell_angle_beta   113.76583086
_cell_angle_gamma   90.00000000
_symmetry_Int_Tables_number   12
_chemical_formula_structural   Li9Mn7O16
_chemical_formula_sum   'Li18 Mn14 O32'
_cell_volume   593.18075837
_cell_formula_units_Z   2
loop_
 _symmetry_equiv_pos_site_id
 _symmetry_equiv_pos_as_xyz
  1  'x, y, z'
  2  '-x, -y, -z'
  3  '-x, y, -z'
  4  'x, -y, z'
  5  'x+1/2, y+1/2, z'
  6  '-x+1/2, -y+1/2, -z'
  7  '-x+1/2, y+1/2, -z'
  8  'x+1/2, -y+1/2, z'
loop_
 _atom_site_type_symbol
 _atom_site_label
 _atom_site_symmetry_multiplicity
 _atom_site_fract_x
 _atom_site_fract_y
 _atom_site_fract_z
 _atom_site_occupancy
  Li  Li1  8  0.001444  0.243714  0.750196  1
  Li  Li2  4  0.243107  0.000000  0.240035  1
  Li  Li3  4  0.248987  0.000000  0.756852  1
  Li  Li4  2  0.000000  0.000000  0.000000  1
  Mn  Mn5  4  0.250000  0.250000  0.000000  1
  Mn  Mn6  4  0.250000  0.250000  0.500000  1
  Mn  Mn7  2  0.000000  0.000000  0.500000  1
  Mn  Mn8  2  0.000000  0.500000  0.000000  1
  Mn  Mn9  2  0.000000  0.500000  0.500000  1
  O  O10  8  0.110992  0.249607  0.616936  1
  O  O11  8  0.132608  0.261235  0.103132  1
  O  O12  4  0.136881  0.000000  0.886158  1
  O  O13  4  0.139240  0.000000  0.378862  1
  O  O14  4  0.139420  0.500000  0.380433  1
  O  O15  4  0.140459  0.500000  0.881900  1
