# generated using pymatgen
data_Li9Mn7O16
_symmetry_space_group_name_H-M   P-1
_cell_length_a   3.02123020
_cell_length_b   6.50296089
_cell_length_c   15.72148673
_cell_angle_alpha   87.68139739
_cell_angle_beta   85.12212696
_cell_angle_gamma   76.74245678
_symmetry_Int_Tables_number   2
_chemical_formula_structural   Li9Mn7O16
_chemical_formula_sum   'Li9 Mn7 O16'
_cell_volume   299.48839817
_cell_formula_units_Z   1
loop_
 _symmetry_equiv_pos_site_id
 _symmetry_equiv_pos_as_xyz
  1  'x, y, z'
  2  '-x, -y, -z'
loop_
 _atom_site_type_symbol
 _atom_site_label
 _atom_site_symmetry_multiplicity
 _atom_site_fract_x
 _atom_site_fract_y
 _atom_site_fract_z
 _atom_site_occupancy
  Li  Li1  2  0.039722  0.880691  0.179035  1
  Li  Li2  2  0.187534  0.625122  0.563060  1
  Li  Li3  2  0.299177  0.358624  0.934183  1
  Li  Li4  2  0.449498  0.120936  0.315144  1
  Li  Li5  1  0.000000  0.000000  0.000000  1
  Mn  Mn6  2  0.121307  0.747949  0.374235  1
  Mn  Mn7  2  0.268747  0.496407  0.753759  1
  Mn  Mn8  2  0.370906  0.242550  0.119640  1
  Mn  Mn9  1  0.500000  0.000000  0.500000  1
  O  O10  2  0.056297  0.951627  0.593576  1
  O  O11  2  0.130649  0.693568  0.955933  1
  O  O12  2  0.140560  0.791811  0.793245  1
  O  O13  2  0.186274  0.547979  0.156821  1
  O  O14  2  0.298857  0.449088  0.340303  1
  O  O15  2  0.319639  0.298094  0.531830  1
  O  O16  2  0.433289  0.201060  0.716247  1
  O  O17  2  0.475580  0.040240  0.902089  1
