# generated using pymatgen
data_Li9Mn7O16
_symmetry_space_group_name_H-M   P-1
_cell_length_a   5.09361457
_cell_length_b   6.05994677
_cell_length_c   10.43005939
_cell_angle_alpha   76.18634121
_cell_angle_beta   75.90222782
_cell_angle_gamma   76.12762172
_symmetry_Int_Tables_number   2
_chemical_formula_structural   Li9Mn7O16
_chemical_formula_sum   'Li9 Mn7 O16'
_cell_volume   297.52739375
_cell_formula_units_Z   1
loop_
 _symmetry_equiv_pos_site_id
 _symmetry_equiv_pos_as_xyz
  1  'x, y, z'
  2  '-x, -y, -z'
loop_
 _atom_site_type_symbol
 _atom_site_label
 _atom_site_symmetry_multiplicity
 _atom_site_fract_x
 _atom_site_fract_y
 _atom_site_fract_z
 _atom_site_occupancy
  Li  Li1  2  0.488165  0.685053  0.879240  1
  Li  Li2  2  0.494480  0.564743  0.625507  1
  Li  Li3  2  0.498250  0.813069  0.121755  1
  Li  Li4  2  0.498719  0.937777  0.374731  1
  Li  Li5  1  0.000000  0.500000  0.000000  1
  Mn  Mn6  2  0.001565  0.249444  0.500017  1
  Mn  Mn7  2  0.002996  0.372631  0.754250  1
  Mn  Mn8  2  0.005039  0.863243  0.754150  1
  Mn  Mn9  1  0.000000  0.000000  0.000000  1
  O  O10  2  0.215819  0.690276  0.064309  1
  O  O11  2  0.219878  0.785266  0.315974  1
  O  O12  2  0.225741  0.144465  0.069016  1
  O  O13  2  0.228705  0.535748  0.806209  1
  O  O14  2  0.230206  0.892776  0.570477  1
  O  O15  2  0.232770  0.391934  0.567636  1
  O  O16  2  0.234732  0.013343  0.822402  1
  O  O17  2  0.234941  0.269205  0.316544  1
