# generated using pymatgen
data_Li9Mn7O16
_symmetry_space_group_name_H-M   P-1
_cell_length_a   3.01792602
_cell_length_b   5.10426572
_cell_length_c   19.97573217
_cell_angle_alpha   91.82984729
_cell_angle_beta   91.46540058
_cell_angle_gamma   102.77389605
_symmetry_Int_Tables_number   2
_chemical_formula_structural   Li9Mn7O16
_chemical_formula_sum   'Li9 Mn7 O16'
_cell_volume   299.77511237
_cell_formula_units_Z   1
loop_
 _symmetry_equiv_pos_site_id
 _symmetry_equiv_pos_as_xyz
  1  'x, y, z'
  2  '-x, -y, -z'
loop_
 _atom_site_type_symbol
 _atom_site_label
 _atom_site_symmetry_multiplicity
 _atom_site_fract_x
 _atom_site_fract_y
 _atom_site_fract_z
 _atom_site_occupancy
  Li  Li1  2  0.042427  0.797511  0.312300  1
  Li  Li2  2  0.187516  0.437656  0.937337  1
  Li  Li3  2  0.272750  0.050722  0.554052  1
  Li  Li4  2  0.439068  0.688805  0.187829  1
  Li  Li5  1  0.000000  0.500000  0.500000  1
  Mn  Mn6  2  0.127591  0.125749  0.125700  1
  Mn  Mn7  2  0.233844  0.742544  0.748730  1
  Mn  Mn8  2  0.382278  0.374778  0.380056  1
  Mn  Mn9  1  0.500000  0.000000  0.000000  1
  O  O10  2  0.024057  0.389021  0.598007  1
  O  O11  2  0.075832  0.984542  0.216970  1
  O  O12  2  0.183361  0.268480  0.034933  1
  O  O13  2  0.191382  0.605898  0.840027  1
  O  O14  2  0.227719  0.867157  0.655763  1
  O  O15  2  0.333575  0.216330  0.460771  1
  O  O16  2  0.436214  0.517777  0.285343  1
  O  O17  2  0.442399  0.856642  0.090675  1
