# generated using pymatgen
data_Li9Mn7O16
_symmetry_space_group_name_H-M   P-1
_cell_length_a   6.07234500
_cell_length_b   6.52273033
_cell_length_c   8.71069056
_cell_angle_alpha   82.76772636
_cell_angle_beta   70.38951845
_cell_angle_gamma   66.84540036
_symmetry_Int_Tables_number   2
_chemical_formula_structural   Li9Mn7O16
_chemical_formula_sum   'Li9 Mn7 O16'
_cell_volume   298.81585382
_cell_formula_units_Z   1
loop_
 _symmetry_equiv_pos_site_id
 _symmetry_equiv_pos_as_xyz
  1  'x, y, z'
  2  '-x, -y, -z'
loop_
 _atom_site_type_symbol
 _atom_site_label
 _atom_site_symmetry_multiplicity
 _atom_site_fract_x
 _atom_site_fract_y
 _atom_site_fract_z
 _atom_site_occupancy
  Li  Li1  2  0.235373  0.508810  0.998673  1
  Li  Li2  2  0.251949  0.251431  0.753708  1
  Li  Li3  2  0.252473  0.001379  0.496880  1
  Li  Li4  2  0.254043  0.760708  0.240230  1
  Li  Li5  1  0.500000  0.000000  0.000000  1
  Mn  Mn6  2  0.016077  0.241691  0.247245  1
  Mn  Mn7  2  0.493507  0.756067  0.753140  1
  Mn  Mn8  1  0.000000  0.000000  0.000000  1
  Mn  Mn9  1  0.000000  0.500000  0.500000  1
  Mn  Mn10  1  0.500000  0.500000  0.500000  1
  O  O11  2  0.098495  0.999261  0.763213  1
  O  O12  2  0.107515  0.741934  0.512407  1
  O  O13  2  0.112421  0.492455  0.257986  1
  O  O14  2  0.112487  0.239489  0.011237  1
  O  O15  2  0.337704  0.775975  0.988021  1
  O  O16  2  0.368046  0.022092  0.249976  1
  O  O17  2  0.372647  0.516455  0.741308  1
  O  O18  2  0.394662  0.256734  0.489691  1
