# generated using pymatgen
data_Li9Mn7O16
_symmetry_space_group_name_H-M   C2/m
_cell_length_a   13.60669873
_cell_length_b   2.88190077
_cell_length_c   15.37675455
_cell_angle_alpha   90.00000000
_cell_angle_beta   95.16550921
_cell_angle_gamma   90.00000000
_symmetry_Int_Tables_number   12
_chemical_formula_structural   Li9Mn7O16
_chemical_formula_sum   'Li18 Mn14 O32'
_cell_volume   600.52226712
_cell_formula_units_Z   2
loop_
 _symmetry_equiv_pos_site_id
 _symmetry_equiv_pos_as_xyz
  1  'x, y, z'
  2  '-x, -y, -z'
  3  '-x, y, -z'
  4  'x, -y, z'
  5  'x+1/2, y+1/2, z'
  6  '-x+1/2, -y+1/2, -z'
  7  '-x+1/2, y+1/2, -z'
  8  'x+1/2, -y+1/2, z'
loop_
 _atom_site_type_symbol
 _atom_site_label
 _atom_site_symmetry_multiplicity
 _atom_site_fract_x
 _atom_site_fract_y
 _atom_site_fract_z
 _atom_site_occupancy
  Li  Li1  4  0.055503  0.500000  0.682985  1
  Li  Li2  4  0.060683  0.000000  0.187738  1
  Li  Li3  4  0.186345  0.000000  0.560527  1
  Li  Li4  4  0.187410  0.500000  0.062409  1
  Li  Li5  2  0.000000  0.500000  0.500000  1
  Mn  Mn6  4  0.114923  0.000000  0.379895  1
  Mn  Mn7  4  0.126826  0.500000  0.874036  1
  Mn  Mn8  4  0.246278  0.500000  0.253563  1
  Mn  Mn9  2  0.000000  0.000000  0.000000  1
  O  O10  4  0.014411  0.000000  0.597602  1
  O  O11  4  0.032353  0.500000  0.084800  1
  O  O12  4  0.094061  0.500000  0.293151  1
  O  O13  4  0.095596  0.000000  0.789516  1
  O  O14  4  0.153894  0.500000  0.460505  1
  O  O15  4  0.158086  0.000000  0.959253  1
  O  O16  4  0.216509  0.000000  0.168255  1
  O  O17  4  0.231476  0.500000  0.658887  1
