# generated using pymatgen
data_Li9Mn7O16
_symmetry_space_group_name_H-M   P-1
_cell_length_a   5.08726173
_cell_length_b   5.29373306
_cell_length_c   11.36353334
_cell_angle_alpha   84.61378283
_cell_angle_beta   88.06119778
_cell_angle_gamma   77.63475811
_symmetry_Int_Tables_number   2
_chemical_formula_structural   Li9Mn7O16
_chemical_formula_sum   'Li9 Mn7 O16'
_cell_volume   297.57817748
_cell_formula_units_Z   1
loop_
 _symmetry_equiv_pos_site_id
 _symmetry_equiv_pos_as_xyz
  1  'x, y, z'
  2  '-x, -y, -z'
loop_
 _atom_site_type_symbol
 _atom_site_label
 _atom_site_symmetry_multiplicity
 _atom_site_fract_x
 _atom_site_fract_y
 _atom_site_fract_z
 _atom_site_occupancy
  Li  Li1  2  0.250041  0.564890  0.437672  1
  Li  Li2  2  0.254080  0.322966  0.687490  1
  Li  Li3  2  0.261820  0.815589  0.180367  1
  Li  Li4  2  0.266725  0.079115  0.936867  1
  Li  Li5  1  0.500000  0.500000  0.000000  1
  Mn  Mn6  2  0.000579  0.608888  0.879958  1
  Mn  Mn7  2  0.004510  0.130107  0.372353  1
  Mn  Mn8  2  0.496325  0.732210  0.758307  1
  Mn  Mn9  1  0.500000  0.000000  0.500000  1
  O  O10  2  0.104934  0.684971  0.031311  1
  O  O11  2  0.118495  0.917082  0.788210  1
  O  O12  2  0.136326  0.209942  0.523710  1
  O  O13  2  0.138370  0.469404  0.267942  1
  O  O14  2  0.346834  0.409762  0.847959  1
  O  O15  2  0.359289  0.665410  0.605543  1
  O  O16  2  0.360398  0.166623  0.103213  1
  O  O17  2  0.363102  0.916721  0.352952  1
