# generated using pymatgen
data_Li9Mn7O16
_symmetry_space_group_name_H-M   P-1
_cell_length_a   5.08577920
_cell_length_b   7.77881915
_cell_length_c   8.00235421
_cell_angle_alpha   99.46290013
_cell_angle_beta   98.54739763
_cell_angle_gamma   104.10989803
_symmetry_Int_Tables_number   2
_chemical_formula_structural   Li9Mn7O16
_chemical_formula_sum   'Li9 Mn7 O16'
_cell_volume   296.90373892
_cell_formula_units_Z   1
loop_
 _symmetry_equiv_pos_site_id
 _symmetry_equiv_pos_as_xyz
  1  'x, y, z'
  2  '-x, -y, -z'
loop_
 _atom_site_type_symbol
 _atom_site_label
 _atom_site_symmetry_multiplicity
 _atom_site_fract_x
 _atom_site_fract_y
 _atom_site_fract_z
 _atom_site_occupancy
  Li  Li1  2  0.021666  0.754085  0.261610  1
  Li  Li2  2  0.495883  0.124748  0.862378  1
  Li  Li3  2  0.496288  0.634003  0.378828  1
  Li  Li4  1  0.000000  0.000000  0.000000  1
  Li  Li5  1  0.000000  0.500000  0.500000  1
  Li  Li6  1  0.500000  0.000000  0.500000  1
  Mn  Mn7  2  0.006392  0.124364  0.384785  1
  Mn  Mn8  2  0.006534  0.373586  0.128956  1
  Mn  Mn9  2  0.490887  0.754122  0.738526  1
  Mn  Mn10  1  0.500000  0.500000  0.000000  1
  O  O11  2  0.213693  0.113517  0.605210  1
  O  O12  2  0.222261  0.869126  0.845114  1
  O  O13  2  0.226422  0.759907  0.504802  1
  O  O14  2  0.243889  0.522203  0.754763  1
  O  O15  2  0.249403  0.266446  0.003543  1
  O  O16  2  0.249818  0.016903  0.252346  1
  O  O17  2  0.256723  0.355889  0.378599  1
  O  O18  2  0.257191  0.613713  0.125044  1
