# generated using pymatgen
data_Li9Mn7O16
_symmetry_space_group_name_H-M   P-1
_cell_length_a   5.10652959
_cell_length_b   7.68815192
_cell_length_c   8.12708256
_cell_angle_alpha   100.13856053
_cell_angle_beta   99.55081416
_cell_angle_gamma   103.26077134
_symmetry_Int_Tables_number   2
_chemical_formula_structural   Li9Mn7O16
_chemical_formula_sum   'Li9 Mn7 O16'
_cell_volume   298.53997538
_cell_formula_units_Z   1
loop_
 _symmetry_equiv_pos_site_id
 _symmetry_equiv_pos_as_xyz
  1  'x, y, z'
  2  '-x, -y, -z'
loop_
 _atom_site_type_symbol
 _atom_site_label
 _atom_site_symmetry_multiplicity
 _atom_site_fract_x
 _atom_site_fract_y
 _atom_site_fract_z
 _atom_site_occupancy
  Li  Li1  2  0.489350  0.243243  0.241048  1
  Li  Li2  2  0.495783  0.115757  0.885348  1
  Li  Li3  2  0.499969  0.625327  0.370809  1
  Li  Li4  1  0.000000  0.000000  0.000000  1
  Li  Li5  1  0.500000  0.000000  0.500000  1
  Li  Li6  1  0.500000  0.500000  0.000000  1
  Mn  Mn7  2  0.002459  0.877449  0.632006  1
  Mn  Mn8  2  0.002551  0.249552  0.755627  1
  Mn  Mn9  2  0.009861  0.629602  0.878557  1
  Mn  Mn10  1  0.000000  0.500000  0.500000  1
  O  O11  2  0.207562  0.745440  0.481027  1
  O  O12  2  0.210302  0.256701  0.979737  1
  O  O13  2  0.229817  0.120507  0.639103  1
  O  O14  2  0.230694  0.620444  0.140227  1
  O  O15  2  0.233628  0.491966  0.756511  1
  O  O16  2  0.234581  0.992930  0.261263  1
  O  O17  2  0.234969  0.368566  0.385652  1
  O  O18  2  0.245345  0.858250  0.872441  1
