# generated using pymatgen
data_Li9Mn7O16
_symmetry_space_group_name_H-M   P-1
_cell_length_a   5.04950103
_cell_length_b   6.05850027
_cell_length_c   9.93339304
_cell_angle_alpha   86.35676268
_cell_angle_beta   78.59407755
_cell_angle_gamma   86.98080729
_symmetry_Int_Tables_number   2
_chemical_formula_structural   Li9Mn7O16
_chemical_formula_sum   'Li9 Mn7 O16'
_cell_volume   297.03291768
_cell_formula_units_Z   1
loop_
 _symmetry_equiv_pos_site_id
 _symmetry_equiv_pos_as_xyz
  1  'x, y, z'
  2  '-x, -y, -z'
loop_
 _atom_site_type_symbol
 _atom_site_label
 _atom_site_symmetry_multiplicity
 _atom_site_fract_x
 _atom_site_fract_y
 _atom_site_fract_z
 _atom_site_occupancy
  Li  Li1  2  0.252863  0.496098  0.751988  1
  Li  Li2  2  0.253222  0.002333  0.753302  1
  Li  Li3  2  0.254840  0.745828  0.246673  1
  Li  Li4  2  0.256370  0.256538  0.244506  1
  Li  Li5  1  0.500000  0.500000  0.000000  1
  Mn  Mn6  2  0.000291  0.258552  0.000636  1
  Mn  Mn7  2  0.499783  0.750506  0.500511  1
  Mn  Mn8  1  0.000000  0.000000  0.500000  1
  Mn  Mn9  1  0.000000  0.500000  0.500000  1
  Mn  Mn10  1  0.500000  0.000000  0.000000  1
  O  O11  2  0.103879  0.500144  0.115493  1
  O  O12  2  0.137340  0.006446  0.111167  1
  O  O13  2  0.138252  0.266513  0.616293  1
  O  O14  2  0.139405  0.766149  0.617069  1
  O  O15  2  0.361223  0.983643  0.383194  1
  O  O16  2  0.362629  0.483677  0.381187  1
  O  O17  2  0.363862  0.235600  0.886819  1
  O  O18  2  0.368660  0.776579  0.894737  1
