# generated using pymatgen
data_Li9Mn7O16
_symmetry_space_group_name_H-M   C2/m
_cell_length_a   19.62459563
_cell_length_b   2.87138743
_cell_length_c   10.70772960
_cell_angle_alpha   90.00000000
_cell_angle_beta   98.79256210
_cell_angle_gamma   90.00000000
_symmetry_Int_Tables_number   12
_chemical_formula_structural   Li9Mn7O16
_chemical_formula_sum   'Li18 Mn14 O32'
_cell_volume   596.28784117
_cell_formula_units_Z   2
loop_
 _symmetry_equiv_pos_site_id
 _symmetry_equiv_pos_as_xyz
  1  'x, y, z'
  2  '-x, -y, -z'
  3  '-x, y, -z'
  4  'x, -y, z'
  5  'x+1/2, y+1/2, z'
  6  '-x+1/2, -y+1/2, -z'
  7  '-x+1/2, y+1/2, -z'
  8  'x+1/2, -y+1/2, z'
loop_
 _atom_site_type_symbol
 _atom_site_label
 _atom_site_symmetry_multiplicity
 _atom_site_fract_x
 _atom_site_fract_y
 _atom_site_fract_z
 _atom_site_occupancy
  Li  Li1  4  0.121859  0.500000  0.683491  1
  Li  Li2  4  0.122696  0.000000  0.439898  1
  Li  Li3  4  0.123888  0.500000  0.189226  1
  Li  Li4  4  0.126167  0.000000  0.935487  1
  Li  Li5  2  0.000000  0.500000  0.500000  1
  Mn  Mn6  4  0.003413  0.000000  0.737849  1
  Mn  Mn7  4  0.249362  0.000000  0.124859  1
  Mn  Mn8  4  0.249569  0.000000  0.625017  1
  Mn  Mn9  2  0.000000  0.500000  0.000000  1
  O  O10  4  0.054381  0.000000  0.092275  1
  O  O11  4  0.055787  0.000000  0.612493  1
  O  O12  4  0.056212  0.500000  0.333785  1
  O  O13  4  0.056524  0.500000  0.832126  1
  O  O14  4  0.190672  0.500000  0.041526  1
  O  O15  4  0.191005  0.500000  0.541583  1
  O  O16  4  0.191694  0.000000  0.292822  1
  O  O17  4  0.192766  0.000000  0.793447  1
