# generated using pymatgen
data_Li9Mn7O16
_symmetry_space_group_name_H-M   P-1
_cell_length_a   3.00999979
_cell_length_b   9.96361804
_cell_length_c   10.40236533
_cell_angle_alpha   73.68169015
_cell_angle_beta   83.36592909
_cell_angle_gamma   86.00824425
_symmetry_Int_Tables_number   2
_chemical_formula_structural   Li9Mn7O16
_chemical_formula_sum   'Li9 Mn7 O16'
_cell_volume   297.17370769
_cell_formula_units_Z   1
loop_
 _symmetry_equiv_pos_site_id
 _symmetry_equiv_pos_as_xyz
  1  'x, y, z'
  2  '-x, -y, -z'
loop_
 _atom_site_type_symbol
 _atom_site_label
 _atom_site_symmetry_multiplicity
 _atom_site_fract_x
 _atom_site_fract_y
 _atom_site_fract_z
 _atom_site_occupancy
  Li  Li1  2  0.044517  0.800948  0.880843  1
  Li  Li2  2  0.193466  0.440159  0.624969  1
  Li  Li3  2  0.305366  0.056380  0.375499  1
  Li  Li4  2  0.456600  0.685928  0.111211  1
  Li  Li5  1  0.000000  0.500000  0.000000  1
  Mn  Mn6  2  0.126907  0.127139  0.749578  1
  Mn  Mn7  2  0.233980  0.745635  0.502158  1
  Mn  Mn8  2  0.386350  0.378700  0.239831  1
  Mn  Mn9  1  0.500000  0.000000  0.000000  1
  O  O10  2  0.069885  0.153553  0.931167  1
  O  O11  2  0.118518  0.760126  0.689687  1
  O  O12  2  0.125631  0.491468  0.804360  1
  O  O13  2  0.190074  0.098946  0.566345  1
  O  O14  2  0.303914  0.722074  0.319769  1
  O  O15  2  0.323746  0.399628  0.429855  1
  O  O16  2  0.443371  0.023570  0.182640  1
  O  O17  2  0.453974  0.342859  0.076716  1
