# generated using pymatgen
data_Li9Mn7O16
_symmetry_space_group_name_H-M   P-1
_cell_length_a   5.28602696
_cell_length_b   6.06836767
_cell_length_c   10.11957373
_cell_angle_alpha   86.63515671
_cell_angle_beta   78.18293972
_cell_angle_gamma   69.57442650
_symmetry_Int_Tables_number   2
_chemical_formula_structural   Li9Mn7O16
_chemical_formula_sum   'Li9 Mn7 O16'
_cell_volume   297.72569117
_cell_formula_units_Z   1
loop_
 _symmetry_equiv_pos_site_id
 _symmetry_equiv_pos_as_xyz
  1  'x, y, z'
  2  '-x, -y, -z'
loop_
 _atom_site_type_symbol
 _atom_site_label
 _atom_site_symmetry_multiplicity
 _atom_site_fract_x
 _atom_site_fract_y
 _atom_site_fract_z
 _atom_site_occupancy
  Li  Li1  2  0.494257  0.133210  0.879466  1
  Li  Li2  2  0.496351  0.617568  0.878611  1
  Li  Li3  2  0.497322  0.873283  0.624509  1
  Li  Li4  2  0.498610  0.376632  0.626451  1
  Li  Li5  1  0.000000  0.500000  0.000000  1
  Mn  Mn6  2  0.003215  0.750025  0.753844  1
  Mn  Mn7  2  0.004485  0.257175  0.754454  1
  Mn  Mn8  1  0.000000  0.000000  0.000000  1
  Mn  Mn9  1  0.000000  0.000000  0.500000  1
  Mn  Mn10  1  0.000000  0.500000  0.500000  1
  O  O11  2  0.208560  0.168169  0.064826  1
  O  O12  2  0.219096  0.947885  0.316218  1
  O  O13  2  0.225739  0.446356  0.806206  1
  O  O14  2  0.230163  0.206963  0.569832  1
  O  O15  2  0.231430  0.705800  0.068334  1
  O  O16  2  0.231997  0.708083  0.568342  1
  O  O17  2  0.234912  0.454536  0.316401  1
  O  O18  2  0.236812  0.959345  0.822359  1
