# generated using pymatgen
data_Li9Mn7O16
_symmetry_space_group_name_H-M   P-1
_cell_length_a   5.04784358
_cell_length_b   6.05670994
_cell_length_c   9.94246217
_cell_angle_alpha   101.66444463
_cell_angle_beta   92.77532746
_cell_angle_gamma   93.01754168
_symmetry_Int_Tables_number   2
_chemical_formula_structural   Li9Mn7O16
_chemical_formula_sum   'Li9 Mn7 O16'
_cell_volume   296.74120160
_cell_formula_units_Z   1
loop_
 _symmetry_equiv_pos_site_id
 _symmetry_equiv_pos_as_xyz
  1  'x, y, z'
  2  '-x, -y, -z'
loop_
 _atom_site_type_symbol
 _atom_site_label
 _atom_site_symmetry_multiplicity
 _atom_site_fract_x
 _atom_site_fract_y
 _atom_site_fract_z
 _atom_site_occupancy
  Li  Li1  2  0.129028  0.441980  0.752063  1
  Li  Li2  2  0.129825  0.935916  0.753297  1
  Li  Li3  2  0.378208  0.315871  0.246697  1
  Li  Li4  2  0.378667  0.804522  0.244500  1
  Li  Li5  1  0.500000  0.500000  0.000000  1
  Mn  Mn6  2  0.000662  0.741736  0.000663  1
  Mn  Mn7  2  0.249845  0.124898  0.500075  1
  Mn  Mn8  2  0.249922  0.625199  0.499383  1
  Mn  Mn9  1  0.500000  0.000000  0.000000  1
  O  O10  2  0.052193  0.862015  0.382785  1
  O  O11  2  0.053883  0.361550  0.383437  1
  O  O12  2  0.161567  0.528540  0.115473  1
  O  O13  2  0.193078  0.021354  0.111307  1
  O  O14  2  0.307299  0.736093  0.886744  1
  O  O15  2  0.316124  0.197035  0.894670  1
  O  O16  2  0.447071  0.388677  0.619005  1
  O  O17  2  0.447280  0.887205  0.616337  1
