# generated using pymatgen
data_Li9Mn7O16
_symmetry_space_group_name_H-M   P-1
_cell_length_a   5.29085834
_cell_length_b   7.66642805
_cell_length_c   7.77196056
_cell_angle_alpha   95.00269075
_cell_angle_beta   105.71489885
_cell_angle_gamma   98.38993046
_symmetry_Int_Tables_number   2
_chemical_formula_structural   Li9Mn7O16
_chemical_formula_sum   'Li9 Mn7 O16'
_cell_volume   297.54521756
_cell_formula_units_Z   1
loop_
 _symmetry_equiv_pos_site_id
 _symmetry_equiv_pos_as_xyz
  1  'x, y, z'
  2  '-x, -y, -z'
loop_
 _atom_site_type_symbol
 _atom_site_label
 _atom_site_symmetry_multiplicity
 _atom_site_fract_x
 _atom_site_fract_y
 _atom_site_fract_z
 _atom_site_occupancy
  Li  Li1  2  0.081272  0.679822  0.567367  1
  Li  Li2  2  0.187746  0.062686  0.686205  1
  Li  Li3  2  0.314276  0.441806  0.799465  1
  Li  Li4  2  0.423578  0.810629  0.931169  1
  Li  Li5  1  0.500000  0.500000  0.500000  1
  Mn  Mn6  2  0.134344  0.377395  0.131674  1
  Mn  Mn7  2  0.256312  0.749713  0.254713  1
  Mn  Mn8  2  0.381669  0.128661  0.375071  1
  Mn  Mn9  1  0.000000  0.000000  0.000000  1
  O  O10  2  0.028232  0.840439  0.796913  1
  O  O11  2  0.090280  0.537711  0.327973  1
  O  O12  2  0.109394  0.220658  0.903608  1
  O  O13  2  0.213115  0.907253  0.447702  1
  O  O14  2  0.285991  0.592656  0.054284  1
  O  O15  2  0.392095  0.269242  0.600512  1
  O  O16  2  0.403056  0.962283  0.168744  1
  O  O17  2  0.477480  0.670119  0.718275  1
