# generated using pymatgen
data_Li9Mn7O16
_symmetry_space_group_name_H-M   P-1
_cell_length_a   6.05701111
_cell_length_b   6.51329682
_cell_length_c   8.19371462
_cell_angle_alpha   89.23503688
_cell_angle_beta   89.12537037
_cell_angle_gamma   66.53295735
_symmetry_Int_Tables_number   2
_chemical_formula_structural   Li9Mn7O16
_chemical_formula_sum   'Li9 Mn7 O16'
_cell_volume   296.47094828
_cell_formula_units_Z   1
loop_
 _symmetry_equiv_pos_site_id
 _symmetry_equiv_pos_as_xyz
  1  'x, y, z'
  2  '-x, -y, -z'
loop_
 _atom_site_type_symbol
 _atom_site_label
 _atom_site_symmetry_multiplicity
 _atom_site_fract_x
 _atom_site_fract_y
 _atom_site_fract_z
 _atom_site_occupancy
  Li  Li1  2  0.129816  0.250162  0.245961  1
  Li  Li2  2  0.243493  0.503693  0.001518  1
  Li  Li3  2  0.376552  0.757962  0.756219  1
  Li  Li4  1  0.000000  0.000000  0.500000  1
  Li  Li5  1  0.500000  0.000000  0.000000  1
  Li  Li6  1  0.500000  0.000000  0.500000  1
  Mn  Mn7  2  0.137339  0.242306  0.752464  1
  Mn  Mn8  2  0.249543  0.500048  0.500466  1
  Mn  Mn9  2  0.372077  0.755515  0.246847  1
  Mn  Mn10  1  0.000000  0.000000  0.000000  1
  O  O11  2  0.016060  0.001600  0.763489  1
  O  O12  2  0.116253  0.239325  0.988129  1
  O  O13  2  0.135164  0.257429  0.513112  1
  O  O14  2  0.240065  0.491695  0.742288  1
  O  O15  2  0.245442  0.515786  0.259138  1
  O  O16  2  0.334893  0.774715  0.011130  1
  O  O17  2  0.362617  0.740414  0.489297  1
  O  O18  2  0.492927  0.022094  0.749341  1
