# generated using pymatgen
data_Li9Mn7O16
_symmetry_space_group_name_H-M   P-1
_cell_length_a   6.06103370
_cell_length_b   6.51865420
_cell_length_c   8.01914557
_cell_angle_alpha   87.64487858
_cell_angle_beta   74.73965303
_cell_angle_gamma   76.38978687
_symmetry_Int_Tables_number   2
_chemical_formula_structural   Li9Mn7O16
_chemical_formula_sum   'Li9 Mn7 O16'
_cell_volume   297.00633615
_cell_formula_units_Z   1
loop_
 _symmetry_equiv_pos_site_id
 _symmetry_equiv_pos_as_xyz
  1  'x, y, z'
  2  '-x, -y, -z'
loop_
 _atom_site_type_symbol
 _atom_site_label
 _atom_site_symmetry_multiplicity
 _atom_site_fract_x
 _atom_site_fract_y
 _atom_site_fract_z
 _atom_site_occupancy
  Li  Li1  2  0.126151  0.379032  0.630143  1
  Li  Li2  2  0.135884  0.863548  0.122235  1
  Li  Li3  2  0.378017  0.626639  0.373748  1
  Li  Li4  2  0.380185  0.125975  0.874607  1
  Li  Li5  1  0.500000  0.500000  0.000000  1
  Mn  Mn6  2  0.250822  0.251115  0.244178  1
  Mn  Mn7  2  0.257540  0.748306  0.756528  1
  Mn  Mn8  1  0.000000  0.000000  0.500000  1
  Mn  Mn9  1  0.000000  0.500000  0.000000  1
  Mn  Mn10  1  0.500000  0.000000  0.500000  1
  O  O11  2  0.038910  0.205626  0.061216  1
  O  O12  2  0.052189  0.705096  0.572400  1
  O  O13  2  0.169466  0.540835  0.171353  1
  O  O14  2  0.207735  0.044810  0.682738  1
  O  O15  2  0.291741  0.949822  0.314533  1
  O  O16  2  0.293007  0.454541  0.817213  1
  O  O17  2  0.446322  0.809429  0.919336  1
  O  O18  2  0.454457  0.300775  0.433873  1
