# generated using pymatgen
data_Li9Mn7O16
_symmetry_space_group_name_H-M   P-1
_cell_length_a   3.01358916
_cell_length_b   7.85811272
_cell_length_c   12.64680278
_cell_angle_alpha   88.63876203
_cell_angle_beta   89.73766919
_cell_angle_gamma   84.00827978
_symmetry_Int_Tables_number   2
_chemical_formula_structural   Li9Mn7O16
_chemical_formula_sum   'Li9 Mn7 O16'
_cell_volume   297.76965535
_cell_formula_units_Z   1
loop_
 _symmetry_equiv_pos_site_id
 _symmetry_equiv_pos_as_xyz
  1  'x, y, z'
  2  '-x, -y, -z'
loop_
 _atom_site_type_symbol
 _atom_site_label
 _atom_site_symmetry_multiplicity
 _atom_site_fract_x
 _atom_site_fract_y
 _atom_site_fract_z
 _atom_site_occupancy
  Li  Li1  2  0.074651  0.370959  0.677711  1
  Li  Li2  2  0.186765  0.125084  0.062310  1
  Li  Li3  2  0.343249  0.856168  0.440806  1
  Li  Li4  2  0.433085  0.627183  0.811393  1
  Li  Li5  1  0.500000  0.500000  0.500000  1
  Mn  Mn6  2  0.115106  0.258308  0.380077  1
  Mn  Mn7  2  0.261720  0.996221  0.749386  1
  Mn  Mn8  2  0.374256  0.749485  0.126337  1
  Mn  Mn9  1  0.000000  0.500000  0.000000  1
  O  O10  2  0.001930  0.564213  0.149989  1
  O  O11  2  0.106615  0.301622  0.521711  1
  O  O12  2  0.123017  0.184253  0.227997  1
  O  O13  2  0.249567  0.064428  0.898060  1
  O  O14  2  0.327210  0.913448  0.602489  1
  O  O15  2  0.369045  0.815688  0.276372  1
  O  O16  2  0.374729  0.686261  0.976502  1
  O  O17  2  0.428638  0.588282  0.651131  1
