# generated using pymatgen
data_Li9Mn7O16
_symmetry_space_group_name_H-M   P-1
_cell_length_a   6.01000251
_cell_length_b   6.07553071
_cell_length_c   8.70899857
_cell_angle_alpha   70.53345740
_cell_angle_beta   88.10108402
_cell_angle_gamma   85.75381153
_symmetry_Int_Tables_number   2
_chemical_formula_structural   Li9Mn7O16
_chemical_formula_sum   'Li9 Mn7 O16'
_cell_volume   298.98682628
_cell_formula_units_Z   1
loop_
 _symmetry_equiv_pos_site_id
 _symmetry_equiv_pos_as_xyz
  1  'x, y, z'
  2  '-x, -y, -z'
loop_
 _atom_site_type_symbol
 _atom_site_label
 _atom_site_symmetry_multiplicity
 _atom_site_fract_x
 _atom_site_fract_y
 _atom_site_fract_z
 _atom_site_occupancy
  Li  Li1  2  0.002373  0.748945  0.003044  1
  Li  Li2  2  0.244199  0.136008  0.740356  1
  Li  Li3  2  0.245593  0.619050  0.745992  1
  Li  Li4  1  0.000000  0.500000  0.500000  1
  Li  Li5  1  0.500000  0.000000  0.500000  1
  Li  Li6  1  0.500000  0.500000  0.500000  1
  Mn  Mn7  2  0.242865  0.371679  0.252027  1
  Mn  Mn8  2  0.242981  0.864283  0.253362  1
  Mn  Mn9  2  0.497885  0.250296  0.997358  1
  Mn  Mn10  1  0.000000  0.000000  0.500000  1
  O  O11  2  0.001564  0.899886  0.736284  1
  O  O12  2  0.024810  0.621257  0.249517  1
  O  O13  2  0.223278  0.227001  0.487004  1
  O  O14  2  0.240735  0.769671  0.488573  1
  O  O15  2  0.258145  0.975027  0.014966  1
  O  O16  2  0.258491  0.480159  0.008753  1
  O  O17  2  0.476956  0.130130  0.238315  1
  O  O18  2  0.497302  0.639021  0.244901  1
