# generated using pymatgen
data_Li9Mn7O16
_symmetry_space_group_name_H-M   P-1
_cell_length_a   5.04743293
_cell_length_b   6.05686909
_cell_length_c   10.19922025
_cell_angle_alpha   103.59750493
_cell_angle_beta   100.16556974
_cell_angle_gamma   93.02858124
_symmetry_Int_Tables_number   2
_chemical_formula_structural   Li9Mn7O16
_chemical_formula_sum   'Li9 Mn7 O16'
_cell_volume   296.85624880
_cell_formula_units_Z   1
loop_
 _symmetry_equiv_pos_site_id
 _symmetry_equiv_pos_as_xyz
  1  'x, y, z'
  2  '-x, -y, -z'
loop_
 _atom_site_type_symbol
 _atom_site_label
 _atom_site_symmetry_multiplicity
 _atom_site_fract_x
 _atom_site_fract_y
 _atom_site_fract_z
 _atom_site_occupancy
  Li  Li1  2  0.253066  0.128106  0.248000  1
  Li  Li2  2  0.253107  0.620839  0.246703  1
  Li  Li3  2  0.254787  0.630774  0.753341  1
  Li  Li4  2  0.256520  0.121266  0.755540  1
  Li  Li5  1  0.500000  0.000000  0.000000  1
  Mn  Mn6  2  0.000171  0.750088  0.500194  1
  Mn  Mn7  2  0.000311  0.241166  0.999427  1
  Mn  Mn8  1  0.500000  0.000000  0.500000  1
  Mn  Mn9  1  0.500000  0.500000  0.000000  1
  Mn  Mn10  1  0.500000  0.500000  0.500000  1
  O  O11  2  0.103673  0.942187  0.884453  1
  O  O12  2  0.137269  0.437847  0.888822  1
  O  O13  2  0.138127  0.425941  0.383250  1
  O  O14  2  0.139689  0.924562  0.383283  1
  O  O15  2  0.361233  0.324579  0.616599  1
  O  O16  2  0.362499  0.826038  0.619161  1
  O  O17  2  0.364009  0.320784  0.113213  1
  O  O18  2  0.368807  0.775839  0.105139  1
