# generated using pymatgen
data_Li9Mn7O16
_symmetry_space_group_name_H-M   P-1
_cell_length_a   3.00672074
_cell_length_b   9.94353690
_cell_length_c   10.18606287
_cell_angle_alpha   77.82709079
_cell_angle_beta   86.49285813
_cell_angle_gamma   86.13114880
_symmetry_Int_Tables_number   2
_chemical_formula_structural   Li9Mn7O16
_chemical_formula_sum   'Li9 Mn7 O16'
_cell_volume   296.66719933
_cell_formula_units_Z   1
loop_
 _symmetry_equiv_pos_site_id
 _symmetry_equiv_pos_as_xyz
  1  'x, y, z'
  2  '-x, -y, -z'
loop_
 _atom_site_type_symbol
 _atom_site_label
 _atom_site_symmetry_multiplicity
 _atom_site_fract_x
 _atom_site_fract_y
 _atom_site_fract_z
 _atom_site_occupancy
  Li  Li1  2  0.006464  0.254861  0.875004  1
  Li  Li2  2  0.010685  0.241696  0.387741  1
  Li  Li3  2  0.487853  0.241725  0.619759  1
  Li  Li4  2  0.496680  0.247754  0.124568  1
  Li  Li5  1  0.500000  0.000000  0.500000  1
  Mn  Mn6  2  0.003309  0.998366  0.259061  1
  Mn  Mn7  2  0.499192  0.501861  0.749586  1
  Mn  Mn8  1  0.000000  0.500000  0.000000  1
  Mn  Mn9  1  0.000000  0.500000  0.500000  1
  Mn  Mn10  1  0.500000  0.000000  0.000000  1
  O  O11  2  0.006688  0.118159  0.577345  1
  O  O12  2  0.029050  0.113629  0.066170  1
  O  O13  2  0.034452  0.615004  0.318241  1
  O  O14  2  0.035953  0.618102  0.820229  1
  O  O15  2  0.465799  0.380666  0.431230  1
  O  O16  2  0.467030  0.381445  0.930396  1
  O  O17  2  0.467435  0.105770  0.809970  1
  O  O18  2  0.473305  0.107522  0.302679  1
