# generated using pymatgen
data_Li9Mn7O16
_symmetry_space_group_name_H-M   P-1
_cell_length_a   6.50617022
_cell_length_b   6.91911568
_cell_length_c   7.77504601
_cell_angle_alpha   92.49126693
_cell_angle_beta   114.13077639
_cell_angle_gamma   108.62985935
_symmetry_Int_Tables_number   2
_chemical_formula_structural   Li9Mn7O16
_chemical_formula_sum   'Li9 Mn7 O16'
_cell_volume   296.49121460
_cell_formula_units_Z   1
loop_
 _symmetry_equiv_pos_site_id
 _symmetry_equiv_pos_as_xyz
  1  'x, y, z'
  2  '-x, -y, -z'
loop_
 _atom_site_type_symbol
 _atom_site_label
 _atom_site_symmetry_multiplicity
 _atom_site_fract_x
 _atom_site_fract_y
 _atom_site_fract_z
 _atom_site_occupancy
  Li  Li1  2  0.122941  0.691801  0.438752  1
  Li  Li2  2  0.128732  0.188673  0.940019  1
  Li  Li3  2  0.378515  0.059196  0.303223  1
  Li  Li4  2  0.379372  0.564975  0.814864  1
  Li  Li5  1  0.500000  0.000000  0.000000  1
  Mn  Mn6  2  0.005250  0.752519  0.752035  1
  Mn  Mn7  2  0.249576  0.633891  0.121446  1
  Mn  Mn8  2  0.252354  0.117512  0.629116  1
  Mn  Mn9  1  0.500000  0.500000  0.500000  1
  O  O10  2  0.057687  0.468772  0.859748  1
  O  O11  2  0.057802  0.968947  0.358127  1
  O  O12  2  0.178875  0.882361  0.023213  1
  O  O13  2  0.196086  0.397528  0.519761  1
  O  O14  2  0.294287  0.846477  0.715931  1
  O  O15  2  0.306600  0.357292  0.228827  1
  O  O16  2  0.439958  0.783202  0.388297  1
  O  O17  2  0.444099  0.283457  0.890283  1
