# generated using pymatgen
data_Li9Mn7O16
_symmetry_space_group_name_H-M   P-1
_cell_length_a   5.09267221
_cell_length_b   5.10521455
_cell_length_c   12.06202747
_cell_angle_alpha   91.81898327
_cell_angle_beta   93.46371901
_cell_angle_gamma   107.33179142
_symmetry_Int_Tables_number   2
_chemical_formula_structural   Li9Mn7O16
_chemical_formula_sum   'Li9 Mn7 O16'
_cell_volume   298.40966374
_cell_formula_units_Z   1
loop_
 _symmetry_equiv_pos_site_id
 _symmetry_equiv_pos_as_xyz
  1  'x, y, z'
  2  '-x, -y, -z'
loop_
 _atom_site_type_symbol
 _atom_site_label
 _atom_site_symmetry_multiplicity
 _atom_site_fract_x
 _atom_site_fract_y
 _atom_site_fract_z
 _atom_site_occupancy
  Li  Li1  2  0.006611  0.504303  0.242367  1
  Li  Li2  2  0.494378  0.495167  0.377332  1
  Li  Li3  2  0.498488  0.505229  0.879128  1
  Li  Li4  1  0.000000  0.500000  0.000000  1
  Li  Li5  1  0.000000  0.500000  0.500000  1
  Li  Li6  1  0.500000  0.000000  0.000000  1
  Mn  Mn7  2  0.006211  0.004712  0.371810  1
  Mn  Mn8  2  0.006303  0.012546  0.118810  1
  Mn  Mn9  2  0.490062  0.988309  0.759098  1
  Mn  Mn10  1  0.500000  0.000000  0.500000  1
  O  O11  2  0.214480  0.219317  0.003294  1
  O  O12  2  0.219901  0.208156  0.761394  1
  O  O13  2  0.227276  0.760846  0.878392  1
  O  O14  2  0.243806  0.769006  0.633971  1
  O  O15  2  0.248781  0.770560  0.381719  1
  O  O16  2  0.251654  0.777990  0.132021  1
  O  O17  2  0.253744  0.235010  0.494350  1
  O  O18  2  0.259303  0.241089  0.239072  1
