# generated using pymatgen
data_Li9Mn7O16
_symmetry_space_group_name_H-M   C2/m
_cell_length_a   15.35018268
_cell_length_b   2.87818550
_cell_length_c   13.56370371
_cell_angle_alpha   90.00000000
_cell_angle_beta   95.18697296
_cell_angle_gamma   90.00000000
_symmetry_Int_Tables_number   12
_chemical_formula_structural   Li9Mn7O16
_chemical_formula_sum   'Li18 Mn14 O32'
_cell_volume   596.79960499
_cell_formula_units_Z   2
loop_
 _symmetry_equiv_pos_site_id
 _symmetry_equiv_pos_as_xyz
  1  'x, y, z'
  2  '-x, -y, -z'
  3  '-x, y, -z'
  4  'x, -y, z'
  5  'x+1/2, y+1/2, z'
  6  '-x+1/2, -y+1/2, -z'
  7  '-x+1/2, y+1/2, -z'
  8  'x+1/2, -y+1/2, z'
loop_
 _atom_site_type_symbol
 _atom_site_label
 _atom_site_symmetry_multiplicity
 _atom_site_fract_x
 _atom_site_fract_y
 _atom_site_fract_z
 _atom_site_occupancy
  Li  Li1  4  0.061218  0.000000  0.679461  1
  Li  Li2  4  0.061755  0.500000  0.193451  1
  Li  Li3  4  0.181978  0.500000  0.555330  1
  Li  Li4  4  0.187968  0.000000  0.060925  1
  Li  Li5  2  0.000000  0.500000  0.500000  1
  Mn  Mn6  4  0.119670  0.000000  0.385220  1
  Mn  Mn7  4  0.126199  0.500000  0.872097  1
  Mn  Mn8  4  0.248162  0.500000  0.258547  1
  Mn  Mn9  2  0.000000  0.000000  0.000000  1
  O  O10  4  0.038845  0.500000  0.346248  1
  O  O11  4  0.041675  0.000000  0.841899  1
  O  O12  4  0.084827  0.500000  0.033692  1
  O  O13  4  0.097327  0.000000  0.514183  1
  O  O14  4  0.160855  0.000000  0.233683  1
  O  O15  4  0.166284  0.500000  0.714405  1
  O  O16  4  0.205565  0.500000  0.406144  1
  O  O17  4  0.211376  0.000000  0.904811  1
