# generated using pymatgen
data_Li9Mn21O40
_symmetry_space_group_name_H-M   F222
_cell_length_a   8.21136858
_cell_length_b   8.71411273
_cell_length_c   42.18451734
_cell_angle_alpha   90.00000000
_cell_angle_beta   90.00000000
_cell_angle_gamma   90.00000000
_symmetry_Int_Tables_number   22
_chemical_formula_structural   Li9Mn21O40
_chemical_formula_sum   'Li36 Mn84 O160'
_cell_volume   3018.50434290
_cell_formula_units_Z   4
loop_
 _symmetry_equiv_pos_site_id
 _symmetry_equiv_pos_as_xyz
  1  'x, y, z'
  2  '-x+1/2, -y+1/2, z'
  3  'x+1/2, -y+1/2, -z'
  4  '-x, y, -z'
  5  'x+1/2, y, z+1/2'
  6  '-x, -y+1/2, z+1/2'
  7  'x, -y+1/2, -z+1/2'
  8  '-x+1/2, y, -z+1/2'
  9  'x+1/2, y+1/2, z'
  10  '-x, -y, z'
  11  'x, -y, -z'
  12  '-x+1/2, y+1/2, -z'
  13  'x, y+1/2, z+1/2'
  14  '-x+1/2, -y, z+1/2'
  15  'x+1/2, -y, -z+1/2'
  16  '-x, y+1/2, -z+1/2'
loop_
 _atom_site_type_symbol
 _atom_site_label
 _atom_site_symmetry_multiplicity
 _atom_site_fract_x
 _atom_site_fract_y
 _atom_site_fract_z
 _atom_site_occupancy
  Li  Li1  8  0.000000  0.000000  0.198555  1
  Li  Li2  8  0.000000  0.000000  0.402087  1
  Li  Li3  8  0.250000  0.250000  0.050659  1
  Li  Li4  8  0.250000  0.250000  0.650802  1
  Li  Li5  4  0.000000  0.000000  0.000000  1
  Mn  Mn6  16  0.123035  0.124945  0.326208  1
  Mn  Mn7  16  0.124844  0.125072  0.124335  1
  Mn  Mn8  16  0.125127  0.124583  0.925442  1
  Mn  Mn9  16  0.126967  0.125239  0.524660  1
  Mn  Mn10  16  0.127546  0.126035  0.724573  1
  Mn  Mn11  4  0.250000  0.250000  0.250000  1
  O  O12  16  0.108386  0.121426  0.078463  1
  O  O13  16  0.110817  0.116976  0.677684  1
  O  O14  16  0.111126  0.115093  0.277586  1
  O  O15  16  0.112861  0.108604  0.478108  1
  O  O16  16  0.113829  0.101587  0.876781  1
  O  O17  16  0.136084  0.144734  0.974017  1
  O  O18  16  0.136419  0.133525  0.771818  1
  O  O19  16  0.136445  0.148229  0.374701  1
  O  O20  16  0.140870  0.128303  0.570503  1
  O  O21  16  0.141483  0.130661  0.170228  1
