# generated using pymatgen
data_Li9Mn7O16
_symmetry_space_group_name_H-M   P-1
_cell_length_a   5.99610780
_cell_length_b   6.05680358
_cell_length_c   8.19276176
_cell_angle_alpha   90.82662369
_cell_angle_beta   90.37506252
_cell_angle_gamma   94.20516393
_symmetry_Int_Tables_number   2
_chemical_formula_structural   Li9Mn7O16
_chemical_formula_sum   'Li9 Mn7 O16'
_cell_volume   296.69803375
_cell_formula_units_Z   1
loop_
 _symmetry_equiv_pos_site_id
 _symmetry_equiv_pos_as_xyz
  1  'x, y, z'
  2  '-x, -y, -z'
loop_
 _atom_site_type_symbol
 _atom_site_label
 _atom_site_symmetry_multiplicity
 _atom_site_fract_x
 _atom_site_fract_y
 _atom_site_fract_z
 _atom_site_occupancy
  Li  Li1  2  0.253483  0.743628  0.745624  1
  Li  Li2  2  0.254991  0.256368  0.743940  1
  Li  Li3  1  0.000000  0.000000  0.500000  1
  Li  Li4  1  0.000000  0.500000  0.500000  1
  Li  Li5  1  0.500000  0.000000  0.000000  1
  Li  Li6  1  0.500000  0.500000  0.000000  1
  Li  Li7  1  0.500000  0.500000  0.500000  1
  Mn  Mn8  2  0.256453  0.249861  0.252625  1
  Mn  Mn9  2  0.256844  0.741915  0.252968  1
  Mn  Mn10  1  0.000000  0.000000  0.000000  1
  Mn  Mn11  1  0.000000  0.500000  0.000000  1
  Mn  Mn12  1  0.500000  0.000000  0.500000  1
  O  O13  2  0.004499  0.513540  0.244232  1
  O  O14  2  0.020272  0.002929  0.239150  1
  O  O15  2  0.240041  0.734712  0.012918  1
  O  O16  2  0.241022  0.234092  0.011317  1
  O  O17  2  0.259340  0.764318  0.487893  1
  O  O18  2  0.276665  0.221976  0.488111  1
  O  O19  2  0.475771  0.496880  0.249106  1
  O  O20  2  0.499536  0.982872  0.263587  1
