# generated using pymatgen
data_Li9Mn7O16
_symmetry_space_group_name_H-M   P-1
_cell_length_a   5.08906906
_cell_length_b   6.96292214
_cell_length_c   8.73000868
_cell_angle_alpha   100.04306936
_cell_angle_beta   93.63544930
_cell_angle_gamma   101.06291498
_symmetry_Int_Tables_number   2
_chemical_formula_structural   Li9Mn7O16
_chemical_formula_sum   'Li9 Mn7 O16'
_cell_volume   297.43970699
_cell_formula_units_Z   1
loop_
 _symmetry_equiv_pos_site_id
 _symmetry_equiv_pos_as_xyz
  1  'x, y, z'
  2  '-x, -y, -z'
loop_
 _atom_site_type_symbol
 _atom_site_label
 _atom_site_symmetry_multiplicity
 _atom_site_fract_x
 _atom_site_fract_y
 _atom_site_fract_z
 _atom_site_occupancy
  Li  Li1  2  0.250218  0.561737  0.433370  1
  Li  Li2  2  0.258002  0.315758  0.692981  1
  Li  Li3  2  0.260229  0.056231  0.938460  1
  Li  Li4  2  0.268043  0.790296  0.185512  1
  Li  Li5  1  0.500000  0.500000  0.000000  1
  Mn  Mn6  2  0.000260  0.386920  0.122417  1
  Mn  Mn7  2  0.003665  0.872248  0.627580  1
  Mn  Mn8  2  0.495748  0.263796  0.243722  1
  Mn  Mn9  1  0.500000  0.000000  0.500000  1
  O  O10  2  0.103797  0.368360  0.912798  1
  O  O11  2  0.117130  0.132958  0.157959  1
  O  O12  2  0.138347  0.850979  0.419770  1
  O  O13  2  0.139371  0.593115  0.673309  1
  O  O14  2  0.348482  0.526083  0.210845  1
  O  O15  2  0.359015  0.276156  0.450241  1
  O  O16  2  0.361251  0.777358  0.955460  1
  O  O17  2  0.361595  0.029895  0.707437  1
