# generated using pymatgen
data_Li9Mn7O16
_symmetry_space_group_name_H-M   P-1
_cell_length_a   5.08086089
_cell_length_b   5.99326180
_cell_length_c   10.23103944
_cell_angle_alpha   92.10892700
_cell_angle_beta   101.50783620
_cell_angle_gamma   102.94850459
_symmetry_Int_Tables_number   2
_chemical_formula_structural   Li9Mn7O16
_chemical_formula_sum   'Li9 Mn7 O16'
_cell_volume   296.43354805
_cell_formula_units_Z   1
loop_
 _symmetry_equiv_pos_site_id
 _symmetry_equiv_pos_as_xyz
  1  'x, y, z'
  2  '-x, -y, -z'
loop_
 _atom_site_type_symbol
 _atom_site_label
 _atom_site_symmetry_multiplicity
 _atom_site_fract_x
 _atom_site_fract_y
 _atom_site_fract_z
 _atom_site_occupancy
  Li  Li1  2  0.002295  0.375147  0.628152  1
  Li  Li2  2  0.011279  0.130228  0.878447  1
  Li  Li3  2  0.498560  0.737623  0.246076  1
  Li  Li4  1  0.500000  0.000000  0.000000  1
  Li  Li5  1  0.500000  0.500000  0.000000  1
  Li  Li6  1  0.500000  0.500000  0.500000  1
  Mn  Mn7  2  0.004568  0.388711  0.121408  1
  Mn  Mn8  2  0.005170  0.129188  0.373144  1
  Mn  Mn9  2  0.493643  0.736872  0.756495  1
  Mn  Mn10  1  0.500000  0.000000  0.500000  1
  O  O11  2  0.214969  0.660405  0.058824  1
  O  O12  2  0.224198  0.897818  0.815235  1
  O  O13  2  0.229052  0.442561  0.818884  1
  O  O14  2  0.244597  0.694780  0.577651  1
  O  O15  2  0.248866  0.197126  0.075343  1
  O  O16  2  0.250781  0.949446  0.324375  1
  O  O17  2  0.253377  0.181450  0.553144  1
  O  O18  2  0.254400  0.438209  0.297646  1
