# generated using pymatgen
data_Li9Mn7O16
_symmetry_space_group_name_H-M   P2/m
_cell_length_a   10.54547484
_cell_length_b   2.87539326
_cell_length_c   10.69247518
_cell_angle_alpha   90.00000000
_cell_angle_beta   113.29570752
_cell_angle_gamma   90.00000000
_symmetry_Int_Tables_number   10
_chemical_formula_structural   Li9Mn7O16
_chemical_formula_sum   'Li9 Mn7 O16'
_cell_volume   297.78955421
_cell_formula_units_Z   1
loop_
 _symmetry_equiv_pos_site_id
 _symmetry_equiv_pos_as_xyz
  1  'x, y, z'
  2  '-x, -y, -z'
  3  '-x, y, -z'
  4  'x, -y, z'
loop_
 _atom_site_type_symbol
 _atom_site_label
 _atom_site_symmetry_multiplicity
 _atom_site_fract_x
 _atom_site_fract_y
 _atom_site_fract_z
 _atom_site_occupancy
  Li  Li1  2  0.241293  0.500000  0.244608  1
  Li  Li2  2  0.243146  0.000000  0.001628  1
  Li  Li3  2  0.246641  0.500000  0.753188  1
  Li  Li4  2  0.253720  0.000000  0.496210  1
  Li  Li5  1  0.000000  0.500000  0.000000  1
  Mn  Mn6  2  0.006264  0.000000  0.240452  1
  Mn  Mn7  2  0.498607  0.000000  0.250147  1
  Mn  Mn8  1  0.000000  0.500000  0.500000  1
  Mn  Mn9  1  0.500000  0.500000  0.000000  1
  Mn  Mn10  1  0.500000  0.500000  0.500000  1
  O  O11  2  0.105322  0.000000  0.622953  1
  O  O12  2  0.110688  0.000000  0.140433  1
  O  O13  2  0.113213  0.500000  0.862181  1
  O  O14  2  0.113809  0.500000  0.362636  1
  O  O15  2  0.380482  0.500000  0.139624  1
  O  O16  2  0.380777  0.500000  0.640580  1
  O  O17  2  0.382527  0.000000  0.889811  1
  O  O18  2  0.384190  0.000000  0.390332  1
