# generated using pymatgen
data_Li9Mn7O16
_symmetry_space_group_name_H-M   P-1
_cell_length_a   3.01347651
_cell_length_b   10.19856535
_cell_length_c   10.78974355
_cell_angle_alpha   114.92774409
_cell_angle_beta   93.56030507
_cell_angle_gamma   93.64934488
_symmetry_Int_Tables_number   2
_chemical_formula_structural   Li9Mn7O16
_chemical_formula_sum   'Li9 Mn7 O16'
_cell_volume   298.64854548
_cell_formula_units_Z   1
loop_
 _symmetry_equiv_pos_site_id
 _symmetry_equiv_pos_as_xyz
  1  'x, y, z'
  2  '-x, -y, -z'
loop_
 _atom_site_type_symbol
 _atom_site_label
 _atom_site_symmetry_multiplicity
 _atom_site_fract_x
 _atom_site_fract_y
 _atom_site_fract_z
 _atom_site_occupancy
  Li  Li1  2  0.132247  0.172906  0.241857  1
  Li  Li2  2  0.135448  0.688933  0.255749  1
  Li  Li3  2  0.380347  0.562741  0.752258  1
  Li  Li4  2  0.392679  0.059761  0.758765  1
  Li  Li5  1  0.500000  0.000000  0.000000  1
  Mn  Mn6  2  0.003566  0.240765  0.998563  1
  Mn  Mn7  2  0.249591  0.123601  0.498139  1
  Mn  Mn8  2  0.251328  0.625276  0.501239  1
  Mn  Mn9  1  0.500000  0.500000  0.000000  1
  O  O10  2  0.065351  0.951293  0.117743  1
  O  O11  2  0.086453  0.461838  0.112905  1
  O  O12  2  0.155843  0.415421  0.382822  1
  O  O13  2  0.157341  0.913220  0.384170  1
  O  O14  2  0.342193  0.334121  0.617600  1
  O  O15  2  0.343874  0.834745  0.619243  1
  O  O16  2  0.472233  0.775979  0.893086  1
  O  O17  2  0.478822  0.283455  0.894932  1
