# generated using pymatgen
data_Li9Mn7O16
_symmetry_space_group_name_H-M   P-1
_cell_length_a   5.10215603
_cell_length_b   6.06805399
_cell_length_c   9.85681476
_cell_angle_alpha   85.67393940
_cell_angle_beta   78.09797152
_cell_angle_gamma   88.17936430
_symmetry_Int_Tables_number   2
_chemical_formula_structural   Li9Mn7O16
_chemical_formula_sum   'Li9 Mn7 O16'
_cell_volume   297.71606607
_cell_formula_units_Z   1
loop_
 _symmetry_equiv_pos_site_id
 _symmetry_equiv_pos_as_xyz
  1  'x, y, z'
  2  '-x, -y, -z'
loop_
 _atom_site_type_symbol
 _atom_site_label
 _atom_site_symmetry_multiplicity
 _atom_site_fract_x
 _atom_site_fract_y
 _atom_site_fract_z
 _atom_site_occupancy
  Li  Li1  2  0.003878  0.251504  0.501056  1
  Li  Li2  2  0.244426  0.999069  0.248118  1
  Li  Li3  2  0.253053  0.502085  0.248024  1
  Li  Li4  2  0.491589  0.260881  0.999132  1
  Li  Li5  1  0.000000  0.500000  0.000000  1
  Mn  Mn6  2  0.249248  0.258134  0.755535  1
  Mn  Mn7  2  0.249602  0.751249  0.755096  1
  Mn  Mn8  1  0.000000  0.000000  0.000000  1
  Mn  Mn9  1  0.500000  0.000000  0.500000  1
  Mn  Mn10  1  0.500000  0.500000  0.500000  1
  O  O11  2  0.093016  0.221707  0.117630  1
  O  O12  2  0.100884  0.764204  0.126123  1
  O  O13  2  0.140526  0.486792  0.624644  1
  O  O14  2  0.150220  0.997603  0.628235  1
  O  O15  2  0.352947  0.018696  0.880341  1
  O  O16  2  0.367190  0.503766  0.863181  1
  O  O17  2  0.393923  0.233394  0.373032  1
  O  O18  2  0.397812  0.735187  0.373461  1
