# generated using pymatgen
data_Li9Mn7O16
_symmetry_space_group_name_H-M   P2/m
_cell_length_a   9.75801977
_cell_length_b   2.87714799
_cell_length_c   10.69339514
_cell_angle_alpha   90.00000000
_cell_angle_beta   96.95286328
_cell_angle_gamma   90.00000000
_symmetry_Int_Tables_number   10
_chemical_formula_structural   Li9Mn7O16
_chemical_formula_sum   'Li9 Mn7 O16'
_cell_volume   298.01212885
_cell_formula_units_Z   1
loop_
 _symmetry_equiv_pos_site_id
 _symmetry_equiv_pos_as_xyz
  1  'x, y, z'
  2  '-x, -y, -z'
  3  '-x, y, -z'
  4  'x, -y, z'
loop_
 _atom_site_type_symbol
 _atom_site_label
 _atom_site_symmetry_multiplicity
 _atom_site_fract_x
 _atom_site_fract_y
 _atom_site_fract_z
 _atom_site_occupancy
  Li  Li1  2  0.242816  0.500000  0.876867  1
  Li  Li2  2  0.244385  0.000000  0.120721  1
  Li  Li3  2  0.247292  0.500000  0.371276  1
  Li  Li4  2  0.252992  0.000000  0.629267  1
  Li  Li5  1  0.000000  0.500000  0.000000  1
  Mn  Mn6  2  0.006850  0.000000  0.763394  1
  Mn  Mn7  2  0.498014  0.500000  0.249677  1
  Mn  Mn8  1  0.000000  0.500000  0.500000  1
  Mn  Mn9  1  0.500000  0.000000  0.000000  1
  Mn  Mn10  1  0.500000  0.000000  0.500000  1
  O  O11  2  0.107215  0.000000  0.432537  1
  O  O12  2  0.111756  0.000000  0.915703  1
  O  O13  2  0.112837  0.500000  0.195089  1
  O  O14  2  0.113407  0.500000  0.694729  1
  O  O15  2  0.381464  0.500000  0.051963  1
  O  O16  2  0.381622  0.000000  0.303610  1
  O  O17  2  0.381727  0.500000  0.551947  1
  O  O18  2  0.385807  0.000000  0.801927  1
