# generated using pymatgen
data_Li9Mn7O16
_symmetry_space_group_name_H-M   P-1
_cell_length_a   5.08649920
_cell_length_b   5.33388814
_cell_length_c   11.15333940
_cell_angle_alpha   87.07399589
_cell_angle_beta   80.55043480
_cell_angle_gamma   83.54358042
_symmetry_Int_Tables_number   2
_chemical_formula_structural   Li9Mn7O16
_chemical_formula_sum   'Li9 Mn7 O16'
_cell_volume   296.43602063
_cell_formula_units_Z   1
loop_
 _symmetry_equiv_pos_site_id
 _symmetry_equiv_pos_as_xyz
  1  'x, y, z'
  2  '-x, -y, -z'
loop_
 _atom_site_type_symbol
 _atom_site_label
 _atom_site_symmetry_multiplicity
 _atom_site_fract_x
 _atom_site_fract_y
 _atom_site_fract_z
 _atom_site_occupancy
  Li  Li1  2  0.064375  0.753142  0.938295  1
  Li  Li2  2  0.182324  0.250293  0.811950  1
  Li  Li3  2  0.319304  0.741104  0.686443  1
  Li  Li4  2  0.420910  0.253484  0.558676  1
  Li  Li5  1  0.000000  0.000000  0.500000  1
  Mn  Mn6  2  0.124684  0.500454  0.376285  1
  Mn  Mn7  2  0.248652  0.999495  0.253529  1
  Mn  Mn8  2  0.374570  0.499741  0.125734  1
  Mn  Mn9  1  0.500000  0.000000  0.000000  1
  O  O10  2  0.044603  0.390909  0.223045  1
  O  O11  2  0.053556  0.160877  0.655960  1
  O  O12  2  0.171511  0.894249  0.096026  1
  O  O13  2  0.201330  0.603013  0.528999  1
  O  O14  2  0.294681  0.397012  0.970523  1
  O  O15  2  0.317412  0.158900  0.396844  1
  O  O16  2  0.419708  0.894925  0.844655  1
  O  O17  2  0.451121  0.607968  0.281092  1
