# generated using pymatgen
data_Li9Mn7O16
_symmetry_space_group_name_H-M   P-1
_cell_length_a   5.09692219
_cell_length_b   6.06212474
_cell_length_c   10.12263949
_cell_angle_alpha   93.26122762
_cell_angle_beta   100.17766189
_cell_angle_gamma   103.77066398
_symmetry_Int_Tables_number   2
_chemical_formula_structural   Li9Mn7O16
_chemical_formula_sum   'Li9 Mn7 O16'
_cell_volume   297.39478392
_cell_formula_units_Z   1
loop_
 _symmetry_equiv_pos_site_id
 _symmetry_equiv_pos_as_xyz
  1  'x, y, z'
  2  '-x, -y, -z'
loop_
 _atom_site_type_symbol
 _atom_site_label
 _atom_site_symmetry_multiplicity
 _atom_site_fract_x
 _atom_site_fract_y
 _atom_site_fract_z
 _atom_site_occupancy
  Li  Li1  2  0.487982  0.875555  0.120451  1
  Li  Li2  2  0.493564  0.122854  0.373745  1
  Li  Li3  2  0.497253  0.374909  0.624228  1
  Li  Li4  2  0.498071  0.626400  0.877960  1
  Li  Li5  1  0.000000  0.000000  0.000000  1
  Mn  Mn6  2  0.003253  0.250991  0.245999  1
  Mn  Mn7  2  0.004248  0.758572  0.245722  1
  Mn  Mn8  1  0.000000  0.000000  0.500000  1
  Mn  Mn9  1  0.000000  0.500000  0.000000  1
  Mn  Mn10  1  0.000000  0.500000  0.500000  1
  O  O11  2  0.214150  0.776301  0.935525  1
  O  O12  2  0.220058  0.557022  0.684380  1
  O  O13  2  0.226316  0.320963  0.931082  1
  O  O14  2  0.228391  0.060669  0.193970  1
  O  O15  2  0.229991  0.821807  0.430783  1
  O  O16  2  0.232387  0.324554  0.431152  1
  O  O17  2  0.233683  0.072779  0.682886  1
  O  O18  2  0.234586  0.576394  0.177595  1
