# generated using pymatgen
data_LiCo5O8
_symmetry_space_group_name_H-M   P4_332
_cell_length_a   8.11380911
_cell_length_b   8.11380911
_cell_length_c   8.11380911
_cell_angle_alpha   90.00000000
_cell_angle_beta   90.00000000
_cell_angle_gamma   90.00000000
_symmetry_Int_Tables_number   212
_chemical_formula_structural   LiCo5O8
_chemical_formula_sum   'Li4 Co20 O32'
_cell_volume   534.16368356
_cell_formula_units_Z   4
loop_
 _symmetry_equiv_pos_site_id
 _symmetry_equiv_pos_as_xyz
  1  'x, y, z'
  2  '-y+3/4, x+1/4, z+3/4'
  3  '-x+1/2, -y, z+1/2'
  4  'y+3/4, -x+3/4, z+1/4'
  5  'x+1/2, -y+1/2, -z'
  6  '-y+1/4, -x+1/4, -z+1/4'
  7  '-x, y+1/2, -z+1/2'
  8  'y+1/4, x+3/4, -z+3/4'
  9  'z, x, y'
  10  'z+3/4, -y+3/4, x+1/4'
  11  'z+1/2, -x+1/2, -y'
  12  'z+1/4, y+3/4, -x+3/4'
  13  '-z, x+1/2, -y+1/2'
  14  '-z+1/4, -y+1/4, -x+1/4'
  15  '-z+1/2, -x, y+1/2'
  16  '-z+3/4, y+1/4, x+3/4'
  17  'y, z, x'
  18  'x+1/4, z+3/4, -y+3/4'
  19  '-y, z+1/2, -x+1/2'
  20  '-x+3/4, z+1/4, y+3/4'
  21  '-y+1/2, -z, x+1/2'
  22  '-x+1/4, -z+1/4, -y+1/4'
  23  'y+1/2, -z+1/2, -x'
  24  'x+3/4, -z+3/4, y+1/4'
loop_
 _atom_site_type_symbol
 _atom_site_label
 _atom_site_symmetry_multiplicity
 _atom_site_fract_x
 _atom_site_fract_y
 _atom_site_fract_z
 _atom_site_occupancy
  Li  Li1  4  0.125000  0.875000  0.375000  1
  Co  Co2  12  0.124634  0.625000  0.125366  1
  Co  Co3  8  0.000088  0.000088  0.000088  1
  O  O4  24  0.106764  0.128605  0.390995  1
  O  O5  8  0.111987  0.611987  0.888013  1
