# generated using pymatgen
data_LiMn7O14
_symmetry_space_group_name_H-M   C2/c
_cell_length_a   18.72529274
_cell_length_b   8.31411551
_cell_length_c   13.11612493
_cell_angle_alpha   90.00000000
_cell_angle_beta   97.88531734
_cell_angle_gamma   90.00000000
_symmetry_Int_Tables_number   15
_chemical_formula_structural   LiMn7O14
_chemical_formula_sum   'Li8 Mn56 O112'
_cell_volume   2022.66645610
_cell_formula_units_Z   8
loop_
 _symmetry_equiv_pos_site_id
 _symmetry_equiv_pos_as_xyz
  1  'x, y, z'
  2  '-x, -y, -z'
  3  '-x, y, -z+1/2'
  4  'x, -y, z+1/2'
  5  'x+1/2, y+1/2, z'
  6  '-x+1/2, -y+1/2, -z'
  7  '-x+1/2, y+1/2, -z+1/2'
  8  'x+1/2, -y+1/2, z+1/2'
loop_
 _atom_site_type_symbol
 _atom_site_label
 _atom_site_symmetry_multiplicity
 _atom_site_fract_x
 _atom_site_fract_y
 _atom_site_fract_z
 _atom_site_occupancy
  Li  Li1  8  0.143314  0.124876  0.178923  1
  Mn  Mn2  8  0.036702  0.249913  0.358659  1
  Mn  Mn3  8  0.070758  0.499419  0.713794  1
  Mn  Mn4  8  0.108034  0.250998  0.571132  1
  Mn  Mn5  8  0.144255  0.001729  0.429774  1
  Mn  Mn6  8  0.177637  0.251248  0.785490  1
  Mn  Mn7  8  0.213251  0.499186  0.642703  1
  Mn  Mn8  4  0.000000  0.000000  0.000000  1
  Mn  Mn9  4  0.250000  0.250000  0.000000  1
  O  O10  8  0.011168  0.238256  0.496031  1
  O  O11  8  0.030908  0.484668  0.343213  1
  O  O12  8  0.043033  0.017438  0.370503  1
  O  O13  8  0.063106  0.263484  0.217082  1
  O  O14  8  0.079868  0.266227  0.709550  1
  O  O15  8  0.111600  0.485450  0.584610  1
  O  O16  8  0.112258  0.018694  0.563033  1
  O  O17  8  0.134089  0.235986  0.432008  1
  O  O18  8  0.152489  0.233010  0.924576  1
  O  O19  8  0.172948  0.486596  0.771629  1
  O  O20  8  0.183212  0.012082  0.797765  1
  O  O21  8  0.205155  0.266763  0.647595  1
  O  O22  8  0.222099  0.264288  0.140768  1
  O  O23  8  0.246210  0.015183  0.985767  1
