# generated using pymatgen
data_LiMn12O24
_symmetry_space_group_name_H-M   P2/c
_cell_length_a   8.28083989
_cell_length_b   8.27872230
_cell_length_c   13.10268729
_cell_angle_alpha   90.00000000
_cell_angle_beta   108.32336603
_cell_angle_gamma   90.00000000
_symmetry_Int_Tables_number   13
_chemical_formula_structural   LiMn12O24
_chemical_formula_sum   'Li2 Mn24 O48'
_cell_volume   852.70801781
_cell_formula_units_Z   2
loop_
 _symmetry_equiv_pos_site_id
 _symmetry_equiv_pos_as_xyz
  1  'x, y, z'
  2  '-x, -y, -z'
  3  '-x, y, -z+1/2'
  4  'x, -y, z+1/2'
loop_
 _atom_site_type_symbol
 _atom_site_label
 _atom_site_symmetry_multiplicity
 _atom_site_fract_x
 _atom_site_fract_y
 _atom_site_fract_z
 _atom_site_occupancy
  Li  Li1  2  0.500000  0.374764  0.250000  1
  Mn  Mn2  4  0.082170  0.249578  0.166298  1
  Mn  Mn3  4  0.165343  0.499723  0.833097  1
  Mn  Mn4  4  0.249265  0.249968  0.998776  1
  Mn  Mn5  4  0.332764  0.001000  0.666272  1
  Mn  Mn6  4  0.416147  0.248793  0.833072  1
  Mn  Mn7  2  0.000000  0.000000  0.000000  1
  Mn  Mn8  2  0.500000  0.500000  0.000000  1
  O  O9  4  0.020528  0.234660  0.010395  1
  O  O10  4  0.073789  0.484694  0.176816  1
  O  O11  4  0.093636  0.015263  0.156371  1
  O  O12  4  0.146364  0.265027  0.323034  1
  O  O13  4  0.186604  0.264810  0.843403  1
  O  O14  4  0.239705  0.015319  0.010293  1
  O  O15  4  0.259406  0.484176  0.989238  1
  O  O16  4  0.315367  0.236934  0.157662  1
  O  O17  4  0.353696  0.235005  0.676894  1
  O  O18  4  0.405830  0.485904  0.839668  1
  O  O19  4  0.426876  0.014525  0.823102  1
  O  O20  4  0.478640  0.264670  0.989159  1
