# generated using pymatgen
data_LiMn8O16
_symmetry_space_group_name_H-M   Pc
_cell_length_a   9.87891672
_cell_length_b   5.90103540
_cell_length_c   13.97004997
_cell_angle_alpha   90.00000000
_cell_angle_beta   134.39755706
_cell_angle_gamma   90.00000000
_symmetry_Int_Tables_number   7
_chemical_formula_structural   LiMn8O16
_chemical_formula_sum   'Li2 Mn16 O32'
_cell_volume   581.88781544
_cell_formula_units_Z   2
loop_
 _symmetry_equiv_pos_site_id
 _symmetry_equiv_pos_as_xyz
  1  'x, y, z'
  2  'x, -y, z+1/2'
loop_
 _atom_site_type_symbol
 _atom_site_label
 _atom_site_symmetry_multiplicity
 _atom_site_fract_x
 _atom_site_fract_y
 _atom_site_fract_z
 _atom_site_occupancy
  Li  Li1  2  0.910607  0.374988  0.921843  1
  Mn  Mn2  2  0.177142  0.124329  0.330054  1
  Mn  Mn3  2  0.178838  0.374497  0.830731  1
  Mn  Mn4  2  0.475693  0.374607  0.643773  1
  Mn  Mn5  2  0.478329  0.125335  0.146143  1
  Mn  Mn6  2  0.514042  0.124377  0.845671  1
  Mn  Mn7  2  0.514898  0.374113  0.346642  1
  Mn  Mn8  2  0.812075  0.373559  0.161056  1
  Mn  Mn9  2  0.812411  0.123666  0.660979  1
  O  O10  2  0.043792  0.375995  0.199420  1
  O  O11  2  0.045129  0.126276  0.701233  1
  O  O12  2  0.280968  0.375246  0.452684  1
  O  O13  2  0.281910  0.125329  0.953296  1
  O  O14  2  0.353735  0.375549  0.152155  1
  O  O15  2  0.355539  0.125389  0.652733  1
  O  O16  2  0.377559  0.124547  0.335825  1
  O  O17  2  0.378110  0.374857  0.835531  1
  O  O18  2  0.613648  0.125229  0.657050  1
  O  O19  2  0.613666  0.375785  0.157234  1
  O  O20  2  0.636873  0.124936  0.337665  1
  O  O21  2  0.644138  0.374406  0.838951  1
  O  O22  2  0.709690  0.375149  0.539315  1
  O  O23  2  0.710033  0.124916  0.038878  1
  O  O24  2  0.937508  0.125190  0.288478  1
  O  O25  2  0.939516  0.374996  0.792834  1
