# generated using pymatgen
data_LiMn3O6
_symmetry_space_group_name_H-M   Cc
_cell_length_a   8.55076420
_cell_length_b   8.20525628
_cell_length_c   13.27193050
_cell_angle_alpha   90.00000000
_cell_angle_beta   108.45448870
_cell_angle_gamma   90.00000000
_symmetry_Int_Tables_number   9
_chemical_formula_structural   LiMn3O6
_chemical_formula_sum   'Li8 Mn24 O48'
_cell_volume   883.28943480
_cell_formula_units_Z   8
loop_
 _symmetry_equiv_pos_site_id
 _symmetry_equiv_pos_as_xyz
  1  'x, y, z'
  2  'x, -y, z+1/2'
  3  'x+1/2, y+1/2, z'
  4  'x+1/2, -y+1/2, z+1/2'
loop_
 _atom_site_type_symbol
 _atom_site_label
 _atom_site_symmetry_multiplicity
 _atom_site_fract_x
 _atom_site_fract_y
 _atom_site_fract_z
 _atom_site_occupancy
  Li  Li1  4  0.008374  0.375974  0.253096  1
  Li  Li2  4  0.161263  0.121037  0.081755  1
  Mn  Mn3  4  0.006339  0.498821  0.999431  1
  Mn  Mn4  4  0.080957  0.249411  0.665311  1
  Mn  Mn5  4  0.161459  0.000429  0.835137  1
  Mn  Mn6  4  0.258636  0.253212  0.503479  1
  Mn  Mn7  4  0.331513  0.497037  0.166086  1
  Mn  Mn8  4  0.411020  0.252980  0.331048  1
  O  O9  4  0.034364  0.266601  0.508977  1
  O  O10  4  0.056784  0.015598  0.666633  1
  O  O11  4  0.096939  0.488417  0.656069  1
  O  O12  4  0.131319  0.231862  0.822062  1
  O  O13  4  0.188533  0.235645  0.347357  1
  O  O14  4  0.238099  0.489115  0.509887  1
  O  O15  4  0.278357  0.016417  0.501700  1
  O  O16  4  0.331578  0.261613  0.178685  1
  O  O17  4  0.333069  0.731933  0.155418  1
  O  O18  4  0.410780  0.485749  0.318109  1
  O  O19  4  0.415878  0.015166  0.345146  1
  O  O20  4  0.481405  0.241032  0.487952  1
