# generated using pymatgen
data_Li(CoO2)2
_symmetry_space_group_name_H-M   Cmc2_1
_cell_length_a   5.73993192
_cell_length_b   9.91761911
_cell_length_c   9.40425089
_cell_angle_alpha   90.00000000
_cell_angle_beta   90.00000000
_cell_angle_gamma   90.00000000
_symmetry_Int_Tables_number   36
_chemical_formula_structural   Li(CoO2)2
_chemical_formula_sum   'Li8 Co16 O32'
_cell_volume   535.35069797
_cell_formula_units_Z   8
loop_
 _symmetry_equiv_pos_site_id
 _symmetry_equiv_pos_as_xyz
  1  'x, y, z'
  2  '-x, -y, z+1/2'
  3  '-x, y, z'
  4  'x, -y, z+1/2'
  5  'x+1/2, y+1/2, z'
  6  '-x+1/2, -y+1/2, z+1/2'
  7  '-x+1/2, y+1/2, z'
  8  'x+1/2, -y+1/2, z+1/2'
loop_
 _atom_site_type_symbol
 _atom_site_label
 _atom_site_symmetry_multiplicity
 _atom_site_fract_x
 _atom_site_fract_y
 _atom_site_fract_z
 _atom_site_occupancy
  Li  Li1  4  0.000000  0.167788  0.605159  1
  Li  Li2  4  0.000000  0.499264  0.504175  1
  Co  Co3  8  0.245854  0.083942  0.287528  1
  Co  Co4  4  0.000000  0.165101  0.013004  1
  Co  Co5  4  0.000000  0.330932  0.286737  1
  O  O6  8  0.224147  0.235471  0.162852  1
  O  O7  8  0.248696  0.422050  0.394727  1
  O  O8  4  0.000000  0.017909  0.165918  1
  O  O9  4  0.000000  0.166409  0.389133  1
  O  O10  4  0.000000  0.336493  0.895227  1
  O  O11  4  0.000000  0.499891  0.193686  1
