# generated using pymatgen
data_Li5CoO4
_symmetry_space_group_name_H-M   Pbca
_cell_length_a   5.08305240
_cell_length_b   16.13645074
_cell_length_c   9.72075741
_cell_angle_alpha   90.00000000
_cell_angle_beta   90.00000000
_cell_angle_gamma   90.00000000
_symmetry_Int_Tables_number   61
_chemical_formula_structural   Li5CoO4
_chemical_formula_sum   'Li40 Co8 O32'
_cell_volume   797.32009231
_cell_formula_units_Z   8
loop_
 _symmetry_equiv_pos_site_id
 _symmetry_equiv_pos_as_xyz
  1  'x, y, z'
  2  '-x, -y, -z'
  3  '-x+1/2, -y, z+1/2'
  4  'x+1/2, y, -z+1/2'
  5  'x+1/2, -y+1/2, -z'
  6  '-x+1/2, y+1/2, z'
  7  '-x, y+1/2, -z+1/2'
  8  'x, -y+1/2, z+1/2'
loop_
 _atom_site_type_symbol
 _atom_site_label
 _atom_site_symmetry_multiplicity
 _atom_site_fract_x
 _atom_site_fract_y
 _atom_site_fract_z
 _atom_site_occupancy
  Li  Li1  8  0.030322  0.227158  0.456311  1
  Li  Li2  8  0.081132  0.570304  0.059625  1
  Li  Li3  8  0.095368  0.178720  0.185538  1
  Li  Li4  8  0.101138  0.518562  0.304063  1
  Li  Li5  8  0.104764  0.665816  0.808832  1
  Co  Co6  8  0.124704  0.615941  0.547102  1
  O  O7  8  0.211931  0.151656  0.977740  1
  O  O8  8  0.231385  0.124897  0.361090  1
  O  O9  8  0.231893  0.208593  0.646460  1
  O  O10  8  0.246802  0.523639  0.634315  1
