# generated using pymatgen
data_Li5Mn7O16
_symmetry_space_group_name_H-M   Pnnm
_cell_length_a   8.39120499
_cell_length_b   11.76897485
_cell_length_c   5.82573663
_cell_angle_alpha   90.00000000
_cell_angle_beta   90.00000000
_cell_angle_gamma   90.00000000
_symmetry_Int_Tables_number   58
_chemical_formula_structural   Li5Mn7O16
_chemical_formula_sum   'Li10 Mn14 O32'
_cell_volume   575.32575088
_cell_formula_units_Z   2
loop_
 _symmetry_equiv_pos_site_id
 _symmetry_equiv_pos_as_xyz
  1  'x, y, z'
  2  '-x, -y, -z'
  3  '-x, -y, z'
  4  'x, y, -z'
  5  'x+1/2, -y+1/2, -z+1/2'
  6  '-x+1/2, y+1/2, z+1/2'
  7  '-x+1/2, y+1/2, -z+1/2'
  8  'x+1/2, -y+1/2, z+1/2'
loop_
 _atom_site_type_symbol
 _atom_site_label
 _atom_site_symmetry_multiplicity
 _atom_site_fract_x
 _atom_site_fract_y
 _atom_site_fract_z
 _atom_site_occupancy
  Li  Li1  4  0.112389  0.877713  0.000000  1
  Li  Li2  4  0.122388  0.379442  0.000000  1
  Li  Li3  2  0.000000  0.000000  0.500000  1
  Mn  Mn4  8  0.244971  0.127539  0.252138  1
  Mn  Mn5  4  0.001089  0.249944  0.500000  1
  Mn  Mn6  2  0.000000  0.500000  0.500000  1
  O  O7  8  0.018469  0.624766  0.276315  1
  O  O8  8  0.021153  0.138702  0.269586  1
  O  O9  4  0.231296  0.741485  0.500000  1
  O  O10  4  0.236503  0.241558  0.500000  1
  O  O11  4  0.239318  0.021492  0.000000  1
  O  O12  4  0.248540  0.022752  0.500000  1
