# generated using pymatgen
data_Li6Mn9O20
_symmetry_space_group_name_H-M   C2/m
_cell_length_a   10.10623561
_cell_length_b   5.90177579
_cell_length_c   24.29773159
_cell_angle_alpha   90.00000000
_cell_angle_beta   96.74000495
_cell_angle_gamma   90.00000000
_symmetry_Int_Tables_number   12
_chemical_formula_structural   Li6Mn9O20
_chemical_formula_sum   'Li24 Mn36 O80'
_cell_volume   1439.21608187
_cell_formula_units_Z   4
loop_
 _symmetry_equiv_pos_site_id
 _symmetry_equiv_pos_as_xyz
  1  'x, y, z'
  2  '-x, -y, -z'
  3  '-x, y, -z'
  4  'x, -y, z'
  5  'x+1/2, y+1/2, z'
  6  '-x+1/2, -y+1/2, -z'
  7  '-x+1/2, y+1/2, -z'
  8  'x+1/2, -y+1/2, z'
loop_
 _atom_site_type_symbol
 _atom_site_label
 _atom_site_symmetry_multiplicity
 _atom_site_fract_x
 _atom_site_fract_y
 _atom_site_fract_z
 _atom_site_occupancy
  Li  Li1  4  0.031817  0.000000  0.074154  1
  Li  Li2  4  0.078747  0.500000  0.727875  1
  Li  Li3  4  0.128603  0.500000  0.879548  1
  Li  Li4  4  0.176337  0.000000  0.529575  1
  Li  Li5  4  0.220872  0.000000  0.672210  1
  Li  Li6  2  0.000000  0.500000  0.000000  1
  Li  Li7  2  0.000000  0.500000  0.500000  1
  Mn  Mn8  8  0.051972  0.254568  0.401184  1
  Mn  Mn9  8  0.146939  0.252077  0.198772  1
  Mn  Mn10  4  0.100711  0.000000  0.300189  1
  Mn  Mn11  4  0.102472  0.000000  0.801078  1
  Mn  Mn12  4  0.195973  0.500000  0.598789  1
  Mn  Mn13  4  0.198327  0.500000  0.097252  1
  Mn  Mn14  4  0.250000  0.250000  0.000000  1
  O  O15  8  0.000459  0.228883  0.757139  1
  O  O16  8  0.095719  0.270810  0.557951  1
  O  O17  8  0.119808  0.273016  0.051948  1
  O  O18  8  0.198733  0.226657  0.355837  1
  O  O19  8  0.207135  0.220927  0.846839  1
  O  O20  4  0.026732  0.000000  0.646549  1
  O  O21  4  0.043239  0.500000  0.642419  1
  O  O22  4  0.046358  0.000000  0.156104  1
  O  O23  4  0.067667  0.500000  0.151018  1
  O  O24  4  0.133762  0.500000  0.441958  1
  O  O25  4  0.146470  0.000000  0.442514  1
  O  O26  4  0.164756  0.500000  0.959319  1
  O  O27  4  0.165470  0.000000  0.953674  1
  O  O28  4  0.227812  0.000000  0.246422  1
  O  O29  4  0.249357  0.000000  0.756384  1
