# generated using pymatgen
data_Li7Co5O12
_symmetry_space_group_name_H-M   C2/m
_cell_length_a   15.02578884
_cell_length_b   2.85877273
_cell_length_c   10.09900319
_cell_angle_alpha   90.00000000
_cell_angle_beta   108.20132156
_cell_angle_gamma   90.00000000
_symmetry_Int_Tables_number   12
_chemical_formula_structural   Li7Co5O12
_chemical_formula_sum   'Li14 Co10 O24'
_cell_volume   412.10032422
_cell_formula_units_Z   2
loop_
 _symmetry_equiv_pos_site_id
 _symmetry_equiv_pos_as_xyz
  1  'x, y, z'
  2  '-x, -y, -z'
  3  '-x, y, -z'
  4  'x, -y, z'
  5  'x+1/2, y+1/2, z'
  6  '-x+1/2, -y+1/2, -z'
  7  '-x+1/2, y+1/2, -z'
  8  'x+1/2, -y+1/2, z'
loop_
 _atom_site_type_symbol
 _atom_site_label
 _atom_site_symmetry_multiplicity
 _atom_site_fract_x
 _atom_site_fract_y
 _atom_site_fract_z
 _atom_site_occupancy
  Li  Li1  4  0.000959  0.500000  0.244633  1
  Li  Li2  4  0.165647  0.000000  0.247893  1
  Li  Li3  4  0.166609  0.000000  0.749125  1
  Li  Li4  2  0.000000  0.000000  0.000000  1
  Co  Co5  4  0.164154  0.500000  0.003608  1
  Co  Co6  4  0.166833  0.500000  0.500204  1
  Co  Co7  2  0.000000  0.000000  0.500000  1
  O  O8  4  0.078237  0.500000  0.615343  1
  O  O9  4  0.080483  0.000000  0.385324  1
  O  O10  4  0.093271  0.500000  0.116474  1
  O  O11  4  0.096441  0.000000  0.891985  1
  O  O12  4  0.244757  0.000000  0.104170  1
  O  O13  4  0.247240  0.000000  0.618826  1
