# generated using pymatgen
data_Li7Co5O12
_symmetry_space_group_name_H-M   P-1
_cell_length_a   2.98952860
_cell_length_b   7.52483608
_cell_length_c   9.73269528
_cell_angle_alpha   90.94320478
_cell_angle_beta   97.72046484
_cell_angle_gamma   100.32421240
_symmetry_Int_Tables_number   2
_chemical_formula_structural   Li7Co5O12
_chemical_formula_sum   'Li7 Co5 O12'
_cell_volume   213.26194187
_cell_formula_units_Z   1
loop_
 _symmetry_equiv_pos_site_id
 _symmetry_equiv_pos_as_xyz
  1  'x, y, z'
  2  '-x, -y, -z'
loop_
 _atom_site_type_symbol
 _atom_site_label
 _atom_site_symmetry_multiplicity
 _atom_site_fract_x
 _atom_site_fract_y
 _atom_site_fract_z
 _atom_site_occupancy
  Li  Li1  2  0.078402  0.917632  0.243137  1
  Li  Li2  2  0.252141  0.745630  0.753002  1
  Li  Li3  2  0.418662  0.585625  0.248430  1
  Li  Li4  1  0.500000  0.000000  0.000000  1
  Co  Co5  2  0.150582  0.323187  0.997367  1
  Co  Co6  2  0.335346  0.166460  0.499277  1
  Co  Co7  1  0.000000  0.500000  0.500000  1
  O  O8  2  0.049126  0.707335  0.384810  1
  O  O9  2  0.130313  0.152935  0.114978  1
  O  O10  2  0.183437  0.531302  0.891843  1
  O  O11  2  0.280213  0.959757  0.617564  1
  O  O12  2  0.391936  0.374440  0.383305  1
  O  O13  2  0.490762  0.782458  0.115434  1
