# generated using pymatgen
data_Li7Co5O12
_symmetry_space_group_name_H-M   C2/m
_cell_length_a   29.15777885
_cell_length_b   2.93112075
_cell_length_c   5.06362659
_cell_angle_alpha   90.00000000
_cell_angle_beta   99.46110461
_cell_angle_gamma   90.00000000
_symmetry_Int_Tables_number   12
_chemical_formula_structural   Li7Co5O12
_chemical_formula_sum   'Li14 Co10 O24'
_cell_volume   426.87600641
_cell_formula_units_Z   2
loop_
 _symmetry_equiv_pos_site_id
 _symmetry_equiv_pos_as_xyz
  1  'x, y, z'
  2  '-x, -y, -z'
  3  '-x, y, -z'
  4  'x, -y, z'
  5  'x+1/2, y+1/2, z'
  6  '-x+1/2, -y+1/2, -z'
  7  '-x+1/2, y+1/2, -z'
  8  'x+1/2, -y+1/2, z'
loop_
 _atom_site_type_symbol
 _atom_site_label
 _atom_site_symmetry_multiplicity
 _atom_site_fract_x
 _atom_site_fract_y
 _atom_site_fract_z
 _atom_site_occupancy
  Li  Li1  4  0.081518  0.500000  0.914450  1
  Li  Li2  4  0.081758  0.000000  0.423117  1
  Li  Li3  4  0.249956  0.000000  0.247909  1
  Li  Li4  2  0.000000  0.500000  0.500000  1
  Co  Co5  4  0.166392  0.000000  0.833547  1
  Co  Co6  4  0.166479  0.500000  0.333451  1
  Co  Co7  2  0.000000  0.000000  0.000000  1
  O  O8  4  0.036181  0.500000  0.183202  1
  O  O9  4  0.036555  0.000000  0.747833  1
  O  O10  4  0.126887  0.500000  0.630043  1
  O  O11  4  0.128818  0.000000  0.133662  1
  O  O12  4  0.204673  0.000000  0.535863  1
  O  O13  4  0.205404  0.500000  0.034955  1
