# generated using pymatgen
data_Li7Co5O12
_symmetry_space_group_name_H-M   C2/m
_cell_length_a   12.41099459
_cell_length_b   2.99646928
_cell_length_c   11.93181802
_cell_angle_alpha   90.00000000
_cell_angle_beta   104.91698425
_cell_angle_gamma   90.00000000
_symmetry_Int_Tables_number   12
_chemical_formula_structural   Li7Co5O12
_chemical_formula_sum   'Li14 Co10 O24'
_cell_volume   428.78040783
_cell_formula_units_Z   2
loop_
 _symmetry_equiv_pos_site_id
 _symmetry_equiv_pos_as_xyz
  1  'x, y, z'
  2  '-x, -y, -z'
  3  '-x, y, -z'
  4  'x, -y, z'
  5  'x+1/2, y+1/2, z'
  6  '-x+1/2, -y+1/2, -z'
  7  '-x+1/2, y+1/2, -z'
  8  'x+1/2, -y+1/2, z'
loop_
 _atom_site_type_symbol
 _atom_site_label
 _atom_site_symmetry_multiplicity
 _atom_site_fract_x
 _atom_site_fract_y
 _atom_site_fract_z
 _atom_site_occupancy
  Li  Li1  4  0.002078  0.000000  0.749537  1
  Li  Li2  4  0.165984  0.500000  0.420144  1
  Li  Li3  4  0.166712  0.500000  0.914308  1
  Li  Li4  2  0.000000  0.000000  0.500000  1
  Co  Co5  4  0.160458  0.500000  0.658322  1
  Co  Co6  4  0.168547  0.500000  0.167994  1
  Co  Co7  2  0.000000  0.000000  0.000000  1
  O  O8  4  0.007180  0.500000  0.123514  1
  O  O9  4  0.016566  0.500000  0.631494  1
  O  O10  4  0.159738  0.000000  0.043605  1
  O  O11  4  0.166537  0.000000  0.551163  1
  O  O12  4  0.173598  0.000000  0.787974  1
  O  O13  4  0.179361  0.000000  0.290536  1
