# generated using pymatgen
data_Li7Co5O12
_symmetry_space_group_name_H-M   P-1
_cell_length_a   3.00217005
_cell_length_b   7.81282513
_cell_length_c   10.06890511
_cell_angle_alpha   111.86914706
_cell_angle_beta   90.80076505
_cell_angle_gamma   99.92969959
_symmetry_Int_Tables_number   2
_chemical_formula_structural   Li7Co5O12
_chemical_formula_sum   'Li7 Co5 O12'
_cell_volume   215.10017858
_cell_formula_units_Z   1
loop_
 _symmetry_equiv_pos_site_id
 _symmetry_equiv_pos_as_xyz
  1  'x, y, z'
  2  '-x, -y, -z'
loop_
 _atom_site_type_symbol
 _atom_site_label
 _atom_site_symmetry_multiplicity
 _atom_site_fract_x
 _atom_site_fract_y
 _atom_site_fract_z
 _atom_site_occupancy
  Li  Li1  2  0.000826  0.001172  0.244468  1
  Li  Li2  2  0.334237  0.664741  0.079094  1
  Li  Li3  2  0.336250  0.666502  0.585230  1
  Li  Li4  1  0.500000  0.000000  0.000000  1
  Co  Co5  2  0.157860  0.319275  0.161857  1
  Co  Co6  2  0.162928  0.334631  0.669328  1
  Co  Co7  1  0.500000  0.000000  0.500000  1
  O  O8  2  0.074049  0.169938  0.470111  1
  O  O9  2  0.092050  0.186185  0.977964  1
  O  O10  2  0.213271  0.504066  0.864097  1
  O  O11  2  0.259043  0.495211  0.358644  1
  O  O12  2  0.420370  0.835050  0.299168  1
  O  O13  2  0.446663  0.821164  0.794708  1
