# generated using pymatgen
data_Li7Co5O12
_symmetry_space_group_name_H-M   C2/m
_cell_length_a   15.31477544
_cell_length_b   2.86885026
_cell_length_c   10.13991344
_cell_angle_alpha   90.00000000
_cell_angle_beta   110.11283734
_cell_angle_gamma   90.00000000
_symmetry_Int_Tables_number   12
_chemical_formula_structural   Li7Co5O12
_chemical_formula_sum   'Li14 Co10 O24'
_cell_volume   418.33704382
_cell_formula_units_Z   2
loop_
 _symmetry_equiv_pos_site_id
 _symmetry_equiv_pos_as_xyz
  1  'x, y, z'
  2  '-x, -y, -z'
  3  '-x, y, -z'
  4  'x, -y, z'
  5  'x+1/2, y+1/2, z'
  6  '-x+1/2, -y+1/2, -z'
  7  '-x+1/2, y+1/2, -z'
  8  'x+1/2, -y+1/2, z'
loop_
 _atom_site_type_symbol
 _atom_site_label
 _atom_site_symmetry_multiplicity
 _atom_site_fract_x
 _atom_site_fract_y
 _atom_site_fract_z
 _atom_site_occupancy
  Li  Li1  4  0.000399  0.500000  0.258796  1
  Li  Li2  4  0.165000  0.000000  0.420529  1
  Li  Li3  4  0.165595  0.000000  0.914592  1
  Li  Li4  2  0.000000  0.000000  0.500000  1
  Co  Co5  4  0.162028  0.500000  0.659103  1
  Co  Co6  4  0.168091  0.500000  0.166974  1
  Co  Co7  2  0.000000  0.000000  0.000000  1
  O  O8  4  0.081705  0.500000  0.964809  1
  O  O9  4  0.085567  0.000000  0.202964  1
  O  O10  4  0.093099  0.500000  0.476747  1
  O  O11  4  0.094643  0.000000  0.703048  1
  O  O12  4  0.240162  0.000000  0.634292  1
  O  O13  4  0.248900  0.500000  0.861331  1
