# generated using pymatgen
data_Li7Co5O12
_symmetry_space_group_name_H-M   P-1
_cell_length_a   5.78638044
_cell_length_b   5.87331058
_cell_length_c   7.72088459
_cell_angle_alpha   67.94921886
_cell_angle_beta   79.49127560
_cell_angle_gamma   60.49683316
_symmetry_Int_Tables_number   2
_chemical_formula_structural   Li7Co5O12
_chemical_formula_sum   'Li7 Co5 O12'
_cell_volume   211.66461577
_cell_formula_units_Z   1
loop_
 _symmetry_equiv_pos_site_id
 _symmetry_equiv_pos_as_xyz
  1  'x, y, z'
  2  '-x, -y, -z'
loop_
 _atom_site_type_symbol
 _atom_site_label
 _atom_site_symmetry_multiplicity
 _atom_site_fract_x
 _atom_site_fract_y
 _atom_site_fract_z
 _atom_site_occupancy
  Li  Li1  2  0.164104  0.837925  0.169617  1
  Li  Li2  2  0.334984  0.165758  0.831489  1
  Li  Li3  1  0.000000  0.000000  0.500000  1
  Li  Li4  1  0.000000  0.500000  0.500000  1
  Li  Li5  1  0.500000  0.500000  0.500000  1
  Co  Co6  2  0.164528  0.328997  0.172168  1
  Co  Co7  2  0.325750  0.676409  0.825312  1
  Co  Co8  1  0.500000  0.000000  0.500000  1
  O  O9  2  0.006701  0.738588  0.998440  1
  O  O10  2  0.163008  0.586234  0.685530  1
  O  O11  2  0.201147  0.062906  0.657187  1
  O  O12  2  0.340437  0.940427  0.340738  1
  O  O13  2  0.346972  0.385175  0.343812  1
  O  O14  2  0.491657  0.268453  0.009544  1
