# generated using pymatgen
data_Li7Co5O12
_symmetry_space_group_name_H-M   C2/m
_cell_length_a   9.56289620
_cell_length_b   8.53110395
_cell_length_c   4.90726419
_cell_angle_alpha   90.00000000
_cell_angle_beta   99.87522080
_cell_angle_gamma   90.00000000
_symmetry_Int_Tables_number   12
_chemical_formula_structural   Li7Co5O12
_chemical_formula_sum   'Li14 Co10 O24'
_cell_volume   394.41305767
_cell_formula_units_Z   2
loop_
 _symmetry_equiv_pos_site_id
 _symmetry_equiv_pos_as_xyz
  1  'x, y, z'
  2  '-x, -y, -z'
  3  '-x, y, -z'
  4  'x, -y, z'
  5  'x+1/2, y+1/2, z'
  6  '-x+1/2, -y+1/2, -z'
  7  '-x+1/2, y+1/2, -z'
  8  'x+1/2, -y+1/2, z'
loop_
 _atom_site_type_symbol
 _atom_site_label
 _atom_site_symmetry_multiplicity
 _atom_site_fract_x
 _atom_site_fract_y
 _atom_site_fract_z
 _atom_site_occupancy
  Li  Li1  8  0.248151  0.835426  0.743425  1
  Li  Li2  4  0.245292  0.000000  0.259760  1
  Li  Li3  2  0.000000  0.000000  0.500000  1
  Co  Co4  4  0.000000  0.165422  0.000000  1
  Co  Co5  4  0.000000  0.332846  0.500000  1
  Co  Co6  2  0.000000  0.500000  0.000000  1
  O  O7  8  0.108174  0.332791  0.870575  1
  O  O8  8  0.111792  0.175184  0.356984  1
  O  O9  4  0.109954  0.500000  0.369207  1
  O  O10  4  0.113207  0.000000  0.895682  1
