# generated using pymatgen
data_Li7Co5O12
_symmetry_space_group_name_H-M   P-1
_cell_length_a   3.00258579
_cell_length_b   5.04151941
_cell_length_c   14.26909860
_cell_angle_alpha   86.83883982
_cell_angle_beta   88.78670806
_cell_angle_gamma   89.18768574
_symmetry_Int_Tables_number   2
_chemical_formula_structural   Li7Co5O12
_chemical_formula_sum   'Li7 Co5 O12'
_cell_volume   215.60449327
_cell_formula_units_Z   1
loop_
 _symmetry_equiv_pos_site_id
 _symmetry_equiv_pos_as_xyz
  1  'x, y, z'
  2  '-x, -y, -z'
loop_
 _atom_site_type_symbol
 _atom_site_label
 _atom_site_symmetry_multiplicity
 _atom_site_fract_x
 _atom_site_fract_y
 _atom_site_fract_z
 _atom_site_occupancy
  Li  Li1  2  0.000937  0.667820  0.333511  1
  Li  Li2  2  0.495422  0.831578  0.167269  1
  Li  Li3  1  0.000000  0.000000  0.000000  1
  Li  Li4  1  0.500000  0.500000  0.000000  1
  Li  Li5  1  0.500000  0.500000  0.500000  1
  Co  Co6  2  0.000488  0.336899  0.159312  1
  Co  Co7  2  0.494827  0.827757  0.668194  1
  Co  Co8  1  0.000000  0.000000  0.500000  1
  O  O9  2  0.001335  0.365450  0.906992  1
  O  O10  2  0.003108  0.314740  0.417558  1
  O  O11  2  0.011124  0.034387  0.248011  1
  O  O12  2  0.459052  0.520188  0.750709  1
  O  O13  2  0.466572  0.175762  0.089665  1
  O  O14  2  0.491665  0.144872  0.585462  1
