# generated using pymatgen
data_Li7Co5O12
_symmetry_space_group_name_H-M   C2
_cell_length_a   5.06200455
_cell_length_b   8.49761646
_cell_length_c   9.37829121
_cell_angle_alpha   90.00000000
_cell_angle_beta   99.13948626
_cell_angle_gamma   90.00000000
_symmetry_Int_Tables_number   5
_chemical_formula_structural   Li7Co5O12
_chemical_formula_sum   'Li14 Co10 O24'
_cell_volume   398.28552264
_cell_formula_units_Z   2
loop_
 _symmetry_equiv_pos_site_id
 _symmetry_equiv_pos_as_xyz
  1  'x, y, z'
  2  '-x, y, -z'
  3  'x+1/2, y+1/2, z'
  4  '-x+1/2, y+1/2, -z'
loop_
 _atom_site_type_symbol
 _atom_site_label
 _atom_site_symmetry_multiplicity
 _atom_site_fract_x
 _atom_site_fract_y
 _atom_site_fract_z
 _atom_site_occupancy
  Li  Li1  4  0.241024  0.084602  0.744903  1
  Li  Li2  4  0.245031  0.416582  0.744613  1
  Li  Li3  2  0.000000  0.255089  0.500000  1
  Li  Li4  2  0.000000  0.743380  0.000000  1
  Li  Li5  2  0.000000  0.922213  0.500000  1
  Co  Co6  4  0.249339  0.762636  0.737754  1
  Co  Co7  2  0.000000  0.076678  0.000000  1
  Co  Co8  2  0.000000  0.414858  0.000000  1
  Co  Co9  2  0.000000  0.583143  0.500000  1
  O  O10  4  0.083105  0.243248  0.875780  1
  O  O11  4  0.090960  0.742720  0.369260  1
  O  O12  4  0.125527  0.421006  0.377266  1
  O  O13  4  0.150379  0.911512  0.880587  1
  O  O14  4  0.151557  0.573036  0.889407  1
  O  O15  4  0.158248  0.096979  0.376428  1
