# generated using pymatgen
data_Li7Co5O12
_symmetry_space_group_name_H-M   P-1
_cell_length_a   5.77671748
_cell_length_b   5.82687859
_cell_length_c   6.57089837
_cell_angle_alpha   103.17982389
_cell_angle_beta   102.59495386
_cell_angle_gamma   90.52170073
_symmetry_Int_Tables_number   2
_chemical_formula_structural   Li7Co5O12
_chemical_formula_sum   'Li7 Co5 O12'
_cell_volume   209.76663282
_cell_formula_units_Z   1
loop_
 _symmetry_equiv_pos_site_id
 _symmetry_equiv_pos_as_xyz
  1  'x, y, z'
  2  '-x, -y, -z'
loop_
 _atom_site_type_symbol
 _atom_site_label
 _atom_site_symmetry_multiplicity
 _atom_site_fract_x
 _atom_site_fract_y
 _atom_site_fract_z
 _atom_site_occupancy
  Li  Li1  2  0.173161  0.167528  0.677211  1
  Li  Li2  2  0.335469  0.832354  0.326958  1
  Li  Li3  1  0.000000  0.500000  0.000000  1
  Li  Li4  1  0.500000  0.000000  0.000000  1
  Li  Li5  1  0.500000  0.500000  0.000000  1
  Co  Co6  2  0.172688  0.674431  0.674844  1
  Co  Co7  2  0.335638  0.326610  0.330672  1
  Co  Co8  1  0.000000  0.000000  0.000000  1
  O  O9  2  0.080797  0.077172  0.310651  1
  O  O10  2  0.081879  0.558713  0.346022  1
  O  O11  2  0.224124  0.766997  0.985892  1
  O  O12  2  0.232708  0.233822  0.011075  1
  O  O13  2  0.409334  0.889644  0.659346  1
  O  O14  2  0.417903  0.422544  0.666331  1
