# generated using pymatgen
data_Li7Co5O12
_symmetry_space_group_name_H-M   P-1
_cell_length_a   2.86939839
_cell_length_b   8.24680502
_cell_length_c   9.69619414
_cell_angle_alpha   65.32017364
_cell_angle_beta   89.12513124
_cell_angle_gamma   89.71748478
_symmetry_Int_Tables_number   2
_chemical_formula_structural   Li7Co5O12
_chemical_formula_sum   'Li7 Co5 O12'
_cell_volume   208.46149119
_cell_formula_units_Z   1
loop_
 _symmetry_equiv_pos_site_id
 _symmetry_equiv_pos_as_xyz
  1  'x, y, z'
  2  '-x, -y, -z'
loop_
 _atom_site_type_symbol
 _atom_site_label
 _atom_site_symmetry_multiplicity
 _atom_site_fract_x
 _atom_site_fract_y
 _atom_site_fract_z
 _atom_site_occupancy
  Li  Li1  2  0.001638  0.186810  0.660794  1
  Li  Li2  2  0.489900  0.339525  0.826325  1
  Li  Li3  1  0.000000  0.500000  0.000000  1
  Li  Li4  1  0.500000  0.000000  0.500000  1
  Li  Li5  1  0.500000  0.500000  0.500000  1
  Co  Co6  2  0.001340  0.658794  0.663153  1
  Co  Co7  2  0.495823  0.163673  0.170628  1
  Co  Co8  1  0.000000  0.000000  0.000000  1
  O  O9  2  0.005015  0.560995  0.332265  1
  O  O10  2  0.013223  0.103011  0.325719  1
  O  O11  2  0.025893  0.758290  0.986957  1
  O  O12  2  0.478467  0.920391  0.160458  1
  O  O13  2  0.494220  0.739643  0.520995  1
  O  O14  2  0.495823  0.596979  0.812128  1
