# generated using pymatgen
data_Li7Co5O12
_symmetry_space_group_name_H-M   P2/m
_cell_length_a   8.18853945
_cell_length_b   2.88973794
_cell_length_c   9.73519046
_cell_angle_alpha   90.00000000
_cell_angle_beta   114.71382385
_cell_angle_gamma   90.00000000
_symmetry_Int_Tables_number   10
_chemical_formula_structural   Li7Co5O12
_chemical_formula_sum   'Li7 Co5 O12'
_cell_volume   209.26181542
_cell_formula_units_Z   1
loop_
 _symmetry_equiv_pos_site_id
 _symmetry_equiv_pos_as_xyz
  1  'x, y, z'
  2  '-x, -y, -z'
  3  '-x, y, -z'
  4  'x, -y, z'
loop_
 _atom_site_type_symbol
 _atom_site_label
 _atom_site_symmetry_multiplicity
 _atom_site_fract_x
 _atom_site_fract_y
 _atom_site_fract_z
 _atom_site_occupancy
  Li  Li1  2  0.163489  0.500000  0.827662  1
  Li  Li2  2  0.320735  0.000000  0.663659  1
  Li  Li3  1  0.000000  0.000000  0.000000  1
  Li  Li4  1  0.000000  0.500000  0.500000  1
  Li  Li5  1  0.500000  0.500000  0.500000  1
  Co  Co6  2  0.158827  0.000000  0.336538  1
  Co  Co7  2  0.335883  0.500000  0.171108  1
  Co  Co8  1  0.500000  0.000000  0.000000  1
  O  O9  2  0.061717  0.000000  0.668925  1
  O  O10  2  0.098499  0.500000  0.187720  1
  O  O11  2  0.238868  0.500000  0.477161  1
  O  O12  2  0.261050  0.000000  0.010273  1
  O  O13  2  0.397239  0.000000  0.326208  1
  O  O14  2  0.424711  0.500000  0.837793  1
