# generated using pymatgen
data_Li7Mn5O12
_symmetry_space_group_name_H-M   C2/m
_cell_length_a   5.24121350
_cell_length_b   8.64421540
_cell_length_c   9.79505137
_cell_angle_alpha   90.00000000
_cell_angle_beta   97.35595807
_cell_angle_gamma   90.00000000
_symmetry_Int_Tables_number   12
_chemical_formula_structural   Li7Mn5O12
_chemical_formula_sum   'Li14 Mn10 O24'
_cell_volume   440.12400930
_cell_formula_units_Z   2
loop_
 _symmetry_equiv_pos_site_id
 _symmetry_equiv_pos_as_xyz
  1  'x, y, z'
  2  '-x, -y, -z'
  3  '-x, y, -z'
  4  'x, -y, z'
  5  'x+1/2, y+1/2, z'
  6  '-x+1/2, -y+1/2, -z'
  7  '-x+1/2, y+1/2, -z'
  8  'x+1/2, -y+1/2, z'
loop_
 _atom_site_type_symbol
 _atom_site_label
 _atom_site_symmetry_multiplicity
 _atom_site_fract_x
 _atom_site_fract_y
 _atom_site_fract_z
 _atom_site_occupancy
  Li  Li1  8  0.248826  0.163942  0.247273  1
  Li  Li2  4  0.249428  0.000000  0.756687  1
  Li  Li3  2  0.000000  0.000000  0.000000  1
  Mn  Mn4  4  0.000000  0.166713  0.500000  1
  Mn  Mn5  4  0.000000  0.331768  0.000000  1
  Mn  Mn6  2  0.000000  0.500000  0.500000  1
  O  O7  8  0.102514  0.333085  0.382642  1
  O  O8  8  0.155842  0.178333  0.891121  1
  O  O9  4  0.100896  0.000000  0.380171  1
  O  O10  4  0.106049  0.500000  0.887475  1
