# generated using pymatgen
data_Li7Mn5O12
_symmetry_space_group_name_H-M   P-1
_cell_length_a   6.01663387
_cell_length_b   6.51199933
_cell_length_c   6.51903559
_cell_angle_alpha   71.96818517
_cell_angle_beta   76.87383380
_cell_angle_gamma   65.98268210
_symmetry_Int_Tables_number   2
_chemical_formula_structural   Li7Mn5O12
_chemical_formula_sum   'Li7 Mn5 O12'
_cell_volume   220.33740526
_cell_formula_units_Z   1
loop_
 _symmetry_equiv_pos_site_id
 _symmetry_equiv_pos_as_xyz
  1  'x, y, z'
  2  '-x, -y, -z'
loop_
 _atom_site_type_symbol
 _atom_site_label
 _atom_site_symmetry_multiplicity
 _atom_site_fract_x
 _atom_site_fract_y
 _atom_site_fract_z
 _atom_site_occupancy
  Li  Li1  2  0.081704  0.161652  0.827434  1
  Li  Li2  2  0.256272  0.497024  0.499347  1
  Li  Li3  2  0.411044  0.830604  0.174494  1
  Li  Li4  1  0.000000  0.000000  0.500000  1
  Mn  Mn5  2  0.171453  0.326884  0.168601  1
  Mn  Mn6  2  0.320636  0.676032  0.828875  1
  Mn  Mn7  1  0.500000  0.000000  0.500000  1
  O  O8  2  0.035147  0.106976  0.162294  1
  O  O9  2  0.163423  0.232488  0.484103  1
  O  O10  2  0.220702  0.423925  0.843733  1
  O  O11  2  0.302501  0.569956  0.150381  1
  O  O12  2  0.381640  0.758410  0.512568  1
  O  O13  2  0.440496  0.920325  0.814267  1
