# generated using pymatgen
data_Li7Mn16O32
_symmetry_space_group_name_H-M   P1
_cell_length_a   8.38996269
_cell_length_b   8.54672413
_cell_length_c   10.17477893
_cell_angle_alpha   114.51148838
_cell_angle_beta   114.14495435
_cell_angle_gamma   90.05913149
_symmetry_Int_Tables_number   1
_chemical_formula_structural   Li7Mn16O32
_chemical_formula_sum   'Li7 Mn16 O32'
_cell_volume   592.82294336
_cell_formula_units_Z   1
loop_
 _symmetry_equiv_pos_site_id
 _symmetry_equiv_pos_as_xyz
  1  'x, y, z'
loop_
 _atom_site_type_symbol
 _atom_site_label
 _atom_site_symmetry_multiplicity
 _atom_site_fract_x
 _atom_site_fract_y
 _atom_site_fract_z
 _atom_site_occupancy
  Li  Li1  1  0.069742  0.570269  0.376062  1
  Li  Li2  1  0.182859  0.183363  0.129068  1
  Li  Li3  1  0.312875  0.313686  0.872696  1
  Li  Li4  1  0.431433  0.935897  0.623910  1
  Li  Li5  1  0.685697  0.684226  0.128929  1
  Li  Li6  1  0.816472  0.817065  0.873798  1
  Li  Li7  1  0.935681  0.430674  0.622304  1
  Mn  Mn8  1  0.003422  0.993046  0.499009  1
  Mn  Mn9  1  0.123899  0.870931  0.250212  1
  Mn  Mn10  1  0.131672  0.880579  0.754942  1
  Mn  Mn11  1  0.252591  0.245799  0.501099  1
  Mn  Mn12  1  0.254803  0.754314  0.005885  1
  Mn  Mn13  1  0.368305  0.624803  0.252076  1
  Mn  Mn14  1  0.378045  0.627715  0.756081  1
  Mn  Mn15  1  0.490600  0.505891  0.500924  1
  Mn  Mn16  1  0.503058  0.006882  0.003436  1
  Mn  Mn17  1  0.621667  0.368531  0.742887  1
  Mn  Mn18  1  0.626277  0.377840  0.250667  1
  Mn  Mn19  1  0.748921  0.751056  0.500108  1
  Mn  Mn20  1  0.751119  0.247543  0.996098  1
  Mn  Mn21  1  0.873467  0.121727  0.743696  1
  Mn  Mn22  1  0.877154  0.126661  0.250049  1
  Mn  Mn23  1  0.997195  0.497606  0.994281  1
  O  O24  1  0.007867  0.218677  0.487840  1
  O  O25  1  0.014946  0.779741  0.520835  1
  O  O26  1  0.029393  0.760719  0.015291  1
  O  O27  1  0.096466  0.123424  0.734041  1
  O  O28  1  0.118068  0.105251  0.262625  1
  O  O29  1  0.125959  0.632212  0.229755  1
  O  O30  1  0.152292  0.636049  0.774423  1
  O  O31  1  0.223799  0.985094  0.481254  1
  O  O32  1  0.247554  0.527796  0.014728  1
  O  O33  1  0.265817  0.980739  0.996661  1
  O  O34  1  0.273669  0.510394  0.522063  1
  O  O35  1  0.351742  0.848173  0.240016  1
  O  O36  1  0.371489  0.405883  0.267497  1
  O  O37  1  0.373465  0.889970  0.774541  1
  O  O38  1  0.392305  0.363275  0.736268  1
  O  O39  1  0.483650  0.724002  0.484008  1
  O  O40  1  0.485812  0.769386  0.995719  1
  O  O41  1  0.492684  0.283138  0.512428  1
  O  O42  1  0.521211  0.239286  0.008668  1
  O  O43  1  0.602278  0.613031  0.258255  1
  O  O44  1  0.610195  0.598988  0.740239  1
  O  O45  1  0.640445  0.143661  0.237199  1
  O  O46  1  0.642928  0.142689  0.753605  1
  O  O47  1  0.722232  0.514940  0.491542  1
  O  O48  1  0.737229  0.022932  0.005509  1
  O  O49  1  0.750511  0.468352  0.979747  1
  O  O50  1  0.777036  0.985264  0.510687  1
  O  O51  1  0.864259  0.360908  0.758297  1
  O  O52  1  0.867468  0.363858  0.221675  1
  O  O53  1  0.885787  0.892322  0.740370  1
  O  O54  1  0.901754  0.874964  0.264152  1
  O  O55  1  0.970237  0.236276  0.976844  1
