# generated using pymatgen
data_Li7Mn5O12
_symmetry_space_group_name_H-M   P-1
_cell_length_a   5.97001771
_cell_length_b   6.01115010
_cell_length_c   6.51463306
_cell_angle_alpha   103.44290077
_cell_angle_beta   102.84892800
_cell_angle_gamma   92.30335779
_symmetry_Int_Tables_number   2
_chemical_formula_structural   Li7Mn5O12
_chemical_formula_sum   'Li7 Mn5 O12'
_cell_volume   220.64614401
_cell_formula_units_Z   1
loop_
 _symmetry_equiv_pos_site_id
 _symmetry_equiv_pos_as_xyz
  1  'x, y, z'
  2  '-x, -y, -z'
loop_
 _atom_site_type_symbol
 _atom_site_label
 _atom_site_symmetry_multiplicity
 _atom_site_fract_x
 _atom_site_fract_y
 _atom_site_fract_z
 _atom_site_occupancy
  Li  Li1  2  0.161412  0.178462  0.675459  1
  Li  Li2  2  0.165184  0.661499  0.672942  1
  Li  Li3  1  0.000000  0.500000  0.000000  1
  Li  Li4  1  0.500000  0.000000  0.000000  1
  Li  Li5  1  0.500000  0.500000  0.000000  1
  Mn  Mn6  2  0.323613  0.339047  0.333189  1
  Mn  Mn7  2  0.328483  0.831411  0.330505  1
  Mn  Mn8  1  0.000000  0.000000  0.000000  1
  O  O9  2  0.070093  0.091952  0.317026  1
  O  O10  2  0.113869  0.584980  0.334308  1
  O  O11  2  0.232164  0.777798  0.016201  1
  O  O12  2  0.242096  0.239835  0.018633  1
  O  O13  2  0.410053  0.425245  0.653747  1
  O  O14  2  0.445651  0.910504  0.653814  1
