# generated using pymatgen
data_Li7Mn5O12
_symmetry_space_group_name_H-M   P-1
_cell_length_a   5.08328738
_cell_length_b   6.00609143
_cell_length_c   7.77811281
_cell_angle_alpha   103.63181995
_cell_angle_beta   96.94526846
_cell_angle_gamma   104.66782616
_symmetry_Int_Tables_number   2
_chemical_formula_structural   Li7Mn5O12
_chemical_formula_sum   'Li7 Mn5 O12'
_cell_volume   219.10258181
_cell_formula_units_Z   1
loop_
 _symmetry_equiv_pos_site_id
 _symmetry_equiv_pos_as_xyz
  1  'x, y, z'
  2  '-x, -y, -z'
loop_
 _atom_site_type_symbol
 _atom_site_label
 _atom_site_symmetry_multiplicity
 _atom_site_fract_x
 _atom_site_fract_y
 _atom_site_fract_z
 _atom_site_occupancy
  Li  Li1  2  0.488745  0.416746  0.159734  1
  Li  Li2  2  0.492236  0.747070  0.498771  1
  Li  Li3  2  0.498251  0.086277  0.836883  1
  Li  Li4  1  0.000000  0.500000  0.000000  1
  Mn  Mn5  2  0.001386  0.831393  0.328830  1
  Mn  Mn6  2  0.005190  0.340431  0.328931  1
  Mn  Mn7  1  0.000000  0.000000  0.000000  1
  O  O8  2  0.217321  0.258255  0.913667  1
  O  O9  2  0.219267  0.953156  0.579793  1
  O  O10  2  0.224551  0.797070  0.906791  1
  O  O11  2  0.229706  0.627742  0.258005  1
  O  O12  2  0.233116  0.465597  0.573955  1
  O  O13  2  0.236948  0.135292  0.236963  1
