# generated using pymatgen
data_Li7Mn5O12
_symmetry_space_group_name_H-M   P-1
_cell_length_a   5.32057511
_cell_length_b   5.74865497
_cell_length_c   7.73931064
_cell_angle_alpha   78.90593958
_cell_angle_beta   74.47030611
_cell_angle_gamma   89.63767676
_symmetry_Int_Tables_number   2
_chemical_formula_structural   Li7Mn5O12
_chemical_formula_sum   'Li7 Mn5 O12'
_cell_volume   223.55572619
_cell_formula_units_Z   1
loop_
 _symmetry_equiv_pos_site_id
 _symmetry_equiv_pos_as_xyz
  1  'x, y, z'
  2  '-x, -y, -z'
loop_
 _atom_site_type_symbol
 _atom_site_label
 _atom_site_symmetry_multiplicity
 _atom_site_fract_x
 _atom_site_fract_y
 _atom_site_fract_z
 _atom_site_occupancy
  Li  Li1  2  0.048485  0.763826  0.982558  1
  Li  Li2  2  0.327300  0.587487  0.675160  1
  Li  Li3  2  0.343315  0.080837  0.685128  1
  Li  Li4  1  0.500000  0.000000  0.000000  1
  Mn  Mn5  2  0.161106  0.666398  0.331304  1
  Mn  Mn6  2  0.174734  0.162534  0.326014  1
  Mn  Mn7  1  0.500000  0.500000  0.000000  1
  O  O8  2  0.069688  0.947444  0.185060  1
  O  O9  2  0.073312  0.453109  0.184946  1
  O  O10  2  0.206949  0.373478  0.500388  1
  O  O11  2  0.250295  0.873383  0.476961  1
  O  O12  2  0.428394  0.779759  0.840142  1
  O  O13  2  0.485645  0.312080  0.813586  1
