# generated using pymatgen
data_Li7Mn5O12
_symmetry_space_group_name_H-M   C2/m
_cell_length_a   9.73558011
_cell_length_b   8.63722449
_cell_length_c   5.27988461
_cell_angle_alpha   90.00000000
_cell_angle_beta   97.85539299
_cell_angle_gamma   90.00000000
_symmetry_Int_Tables_number   12
_chemical_formula_structural   Li7Mn5O12
_chemical_formula_sum   'Li14 Mn10 O24'
_cell_volume   439.81079604
_cell_formula_units_Z   2
loop_
 _symmetry_equiv_pos_site_id
 _symmetry_equiv_pos_as_xyz
  1  'x, y, z'
  2  '-x, -y, -z'
  3  '-x, y, -z'
  4  'x, -y, z'
  5  'x+1/2, y+1/2, z'
  6  '-x+1/2, -y+1/2, -z'
  7  '-x+1/2, y+1/2, -z'
  8  'x+1/2, -y+1/2, z'
loop_
 _atom_site_type_symbol
 _atom_site_label
 _atom_site_symmetry_multiplicity
 _atom_site_fract_x
 _atom_site_fract_y
 _atom_site_fract_z
 _atom_site_occupancy
  Li  Li1  8  0.248275  0.335057  0.247961  1
  Li  Li2  4  0.240256  0.000000  0.256549  1
  Li  Li3  2  0.000000  0.000000  0.500000  1
  Mn  Mn4  4  0.000000  0.165872  0.000000  1
  Mn  Mn5  4  0.000000  0.330682  0.500000  1
  Mn  Mn6  2  0.000000  0.500000  0.000000  1
  O  O7  8  0.107660  0.174580  0.346341  1
  O  O8  8  0.115843  0.331395  0.894381  1
  O  O9  4  0.114895  0.000000  0.897862  1
  O  O10  4  0.118717  0.500000  0.397282  1
