# generated using pymatgen
data_Li7Mn5O12
_symmetry_space_group_name_H-M   P-1
_cell_length_a   5.22236720
_cell_length_b   6.01924506
_cell_length_c   7.78882031
_cell_angle_alpha   76.34137294
_cell_angle_beta   74.93514994
_cell_angle_gamma   70.38031265
_symmetry_Int_Tables_number   2
_chemical_formula_structural   Li7Mn5O12
_chemical_formula_sum   'Li7 Mn5 O12'
_cell_volume   219.69554452
_cell_formula_units_Z   1
loop_
 _symmetry_equiv_pos_site_id
 _symmetry_equiv_pos_as_xyz
  1  'x, y, z'
  2  '-x, -y, -z'
loop_
 _atom_site_type_symbol
 _atom_site_label
 _atom_site_symmetry_multiplicity
 _atom_site_fract_x
 _atom_site_fract_y
 _atom_site_fract_z
 _atom_site_occupancy
  Li  Li1  2  0.494915  0.172871  0.838787  1
  Li  Li2  2  0.495783  0.658062  0.838524  1
  Li  Li3  1  0.000000  0.500000  0.000000  1
  Li  Li4  1  0.500000  0.000000  0.500000  1
  Li  Li5  1  0.500000  0.500000  0.500000  1
  Mn  Mn6  2  0.001320  0.831251  0.671233  1
  Mn  Mn7  2  0.005858  0.337904  0.670668  1
  Mn  Mn8  1  0.000000  0.000000  0.000000  1
  O  O9  2  0.212888  0.149163  0.086404  1
  O  O10  2  0.216177  0.842865  0.419275  1
  O  O11  2  0.225991  0.511524  0.741877  1
  O  O12  2  0.228459  0.683378  0.093106  1
  O  O13  2  0.235610  0.346108  0.427313  1
  O  O14  2  0.240249  0.015296  0.763175  1
