# generated using pymatgen
data_Li7Mn14O32
_symmetry_space_group_name_H-M   R3m
_cell_length_a   5.83283165
_cell_length_b   5.83283165
_cell_length_c   57.06576771
_cell_angle_alpha   90.00000000
_cell_angle_beta   90.00000000
_cell_angle_gamma   120.00000000
_symmetry_Int_Tables_number   160
_chemical_formula_structural   Li7Mn14O32
_chemical_formula_sum   'Li21 Mn42 O96'
_cell_volume   1681.37730033
_cell_formula_units_Z   3
loop_
 _symmetry_equiv_pos_site_id
 _symmetry_equiv_pos_as_xyz
  1  'x, y, z'
  2  '-y, x-y, z'
  3  '-x+y, -x, z'
  4  '-y, -x, z'
  5  '-x+y, y, z'
  6  'x, x-y, z'
  7  'x+2/3, y+1/3, z+1/3'
  8  '-y+2/3, x-y+1/3, z+1/3'
  9  '-x+y+2/3, -x+1/3, z+1/3'
  10  '-y+2/3, -x+1/3, z+1/3'
  11  '-x+y+2/3, y+1/3, z+1/3'
  12  'x+2/3, x-y+1/3, z+1/3'
  13  'x+1/3, y+2/3, z+2/3'
  14  '-y+1/3, x-y+2/3, z+2/3'
  15  '-x+y+1/3, -x+2/3, z+2/3'
  16  '-y+1/3, -x+2/3, z+2/3'
  17  '-x+y+1/3, y+2/3, z+2/3'
  18  'x+1/3, x-y+2/3, z+2/3'
loop_
 _atom_site_type_symbol
 _atom_site_label
 _atom_site_symmetry_multiplicity
 _atom_site_fract_x
 _atom_site_fract_y
 _atom_site_fract_z
 _atom_site_occupancy
  Li  Li1  3  0.000000  0.000000  0.094349  1
  Li  Li2  3  0.000000  0.000000  0.154731  1
  Li  Li3  3  0.000000  0.000000  0.403968  1
  Li  Li4  3  0.000000  0.000000  0.595473  1
  Li  Li5  3  0.000000  0.000000  0.655243  1
  Li  Li6  3  0.000000  0.000000  0.845313  1
  Li  Li7  3  0.000000  0.000000  0.905889  1
  Mn  Mn8  9  0.004686  0.502343  0.375578  1
  Mn  Mn9  9  0.006697  0.503348  0.875675  1
  Mn  Mn10  9  0.169940  0.339881  0.957824  1
  Mn  Mn11  9  0.169975  0.339950  0.457616  1
  Mn  Mn12  3  0.000000  0.000000  0.000554  1
  Mn  Mn13  3  0.000000  0.000000  0.499976  1
  O  O14  9  0.016998  0.508499  0.941635  1
  O  O15  9  0.018012  0.509006  0.441725  1
  O  O16  9  0.038714  0.519357  0.188247  1
  O  O17  9  0.042780  0.521390  0.688835  1
  O  O18  9  0.175576  0.351152  0.891562  1
  O  O19  9  0.175627  0.351253  0.391713  1
  O  O20  9  0.185999  0.371997  0.145026  1
  O  O21  9  0.186092  0.372183  0.644828  1
  O  O22  3  0.000000  0.000000  0.059837  1
  O  O23  3  0.000000  0.000000  0.190438  1
  O  O24  3  0.000000  0.000000  0.308895  1
  O  O25  3  0.000000  0.000000  0.440497  1
  O  O26  3  0.000000  0.000000  0.559446  1
  O  O27  3  0.000000  0.000000  0.690677  1
  O  O28  3  0.000000  0.000000  0.809527  1
  O  O29  3  0.000000  0.000000  0.940449  1
