# generated using pymatgen
data_Li7Mn5O12
_symmetry_space_group_name_H-M   P-1
_cell_length_a   5.96615496
_cell_length_b   6.02457187
_cell_length_c   6.53965728
_cell_angle_alpha   76.43216819
_cell_angle_beta   75.56956772
_cell_angle_gamma   86.29795318
_symmetry_Int_Tables_number   2
_chemical_formula_structural   Li7Mn5O12
_chemical_formula_sum   'Li7 Mn5 O12'
_cell_volume   221.28498801
_cell_formula_units_Z   1
loop_
 _symmetry_equiv_pos_site_id
 _symmetry_equiv_pos_as_xyz
  1  'x, y, z'
  2  '-x, -y, -z'
loop_
 _atom_site_type_symbol
 _atom_site_label
 _atom_site_symmetry_multiplicity
 _atom_site_fract_x
 _atom_site_fract_y
 _atom_site_fract_z
 _atom_site_occupancy
  Li  Li1  2  0.165019  0.176223  0.821194  1
  Li  Li2  2  0.166053  0.661470  0.830045  1
  Li  Li3  1  0.000000  0.500000  0.500000  1
  Li  Li4  1  0.500000  0.000000  0.500000  1
  Li  Li5  1  0.500000  0.500000  0.500000  1
  Mn  Mn6  2  0.326232  0.824712  0.171589  1
  Mn  Mn7  2  0.326325  0.331790  0.167216  1
  Mn  Mn8  1  0.000000  0.000000  0.500000  1
  O  O9  2  0.079114  0.056829  0.186067  1
  O  O10  2  0.108316  0.581624  0.160443  1
  O  O11  2  0.230031  0.228968  0.481705  1
  O  O12  2  0.244224  0.766818  0.487654  1
  O  O13  2  0.421302  0.397804  0.839976  1
  O  O14  2  0.433610  0.910730  0.851785  1
