# generated using pymatgen
data_Li7Mn5O12
_symmetry_space_group_name_H-M   P-1
_cell_length_a   5.28317722
_cell_length_b   5.96483898
_cell_length_c   7.77542875
_cell_angle_alpha   76.43967219
_cell_angle_beta   75.07285108
_cell_angle_gamma   70.27088400
_symmetry_Int_Tables_number   2
_chemical_formula_structural   Li7Mn5O12
_chemical_formula_sum   'Li7 Mn5 O12'
_cell_volume   219.91200107
_cell_formula_units_Z   1
loop_
 _symmetry_equiv_pos_site_id
 _symmetry_equiv_pos_as_xyz
  1  'x, y, z'
  2  '-x, -y, -z'
loop_
 _atom_site_type_symbol
 _atom_site_label
 _atom_site_symmetry_multiplicity
 _atom_site_fract_x
 _atom_site_fract_y
 _atom_site_fract_z
 _atom_site_occupancy
  Li  Li1  2  0.008194  0.828182  0.162393  1
  Li  Li2  2  0.495990  0.332780  0.670261  1
  Li  Li3  1  0.000000  0.500000  0.500000  1
  Li  Li4  1  0.500000  0.000000  0.000000  1
  Li  Li5  1  0.500000  0.500000  0.000000  1
  Mn  Mn6  2  0.000458  0.334466  0.165194  1
  Mn  Mn7  2  0.499969  0.830149  0.669776  1
  Mn  Mn8  1  0.000000  0.000000  0.500000  1
  O  O9  2  0.218395  0.345949  0.923810  1
  O  O10  2  0.221855  0.677013  0.589604  1
  O  O11  2  0.225658  0.010389  0.251125  1
  O  O12  2  0.237350  0.468109  0.245021  1
  O  O13  2  0.237798  0.814968  0.896109  1
  O  O14  2  0.277474  0.153481  0.576459  1
