# generated using pymatgen
data_Li8(CoO2)5
_symmetry_space_group_name_H-M   C2/m
_cell_length_a   10.06618088
_cell_length_b   3.62548178
_cell_length_c   14.31059805
_cell_angle_alpha   90.00000000
_cell_angle_beta   106.23120430
_cell_angle_gamma   90.00000000
_symmetry_Int_Tables_number   12
_chemical_formula_structural   Li8(CoO2)5
_chemical_formula_sum   'Li16 Co10 O20'
_cell_volume   501.44525603
_cell_formula_units_Z   2
loop_
 _symmetry_equiv_pos_site_id
 _symmetry_equiv_pos_as_xyz
  1  'x, y, z'
  2  '-x, -y, -z'
  3  '-x, y, -z'
  4  'x, -y, z'
  5  'x+1/2, y+1/2, z'
  6  '-x+1/2, -y+1/2, -z'
  7  '-x+1/2, y+1/2, -z'
  8  'x+1/2, -y+1/2, z'
loop_
 _atom_site_type_symbol
 _atom_site_label
 _atom_site_symmetry_multiplicity
 _atom_site_fract_x
 _atom_site_fract_y
 _atom_site_fract_z
 _atom_site_occupancy
  Li  Li1  4  0.209494  0.000000  0.546147  1
  Li  Li2  4  0.210243  0.000000  0.940773  1
  Li  Li3  4  0.224193  0.000000  0.335389  1
  Li  Li4  4  0.226960  0.000000  0.158304  1
  Co  Co5  4  0.001198  0.500000  0.602453  1
  Co  Co6  4  0.007433  0.500000  0.204989  1
  Co  Co7  2  0.000000  0.500000  0.000000  1
  O  O8  4  0.127385  0.500000  0.724219  1
  O  O9  4  0.133577  0.500000  0.529472  1
  O  O10  4  0.135613  0.500000  0.931881  1
  O  O11  4  0.136646  0.500000  0.119345  1
  O  O12  4  0.142043  0.500000  0.333696  1
