# generated using pymatgen
data_Li9(CoO4)2
_symmetry_space_group_name_H-M   P2/m
_cell_length_a   7.24019879
_cell_length_b   6.75527857
_cell_length_c   7.87154674
_cell_angle_alpha   90.00000000
_cell_angle_beta   91.31889272
_cell_angle_gamma   90.00000000
_symmetry_Int_Tables_number   10
_chemical_formula_structural   Li9(CoO4)2
_chemical_formula_sum   'Li18 Co4 O16'
_cell_volume   384.89189044
_cell_formula_units_Z   2
loop_
 _symmetry_equiv_pos_site_id
 _symmetry_equiv_pos_as_xyz
  1  'x, y, z'
  2  '-x, -y, -z'
  3  '-x, y, -z'
  4  'x, -y, z'
loop_
 _atom_site_type_symbol
 _atom_site_label
 _atom_site_symmetry_multiplicity
 _atom_site_fract_x
 _atom_site_fract_y
 _atom_site_fract_z
 _atom_site_occupancy
  Li  Li1  4  0.032085  0.238740  0.164560  1
  Li  Li2  4  0.499362  0.239105  0.338955  1
  Li  Li3  2  0.000000  0.265394  0.500000  1
  Li  Li4  2  0.234782  0.500000  0.074130  1
  Li  Li5  2  0.243730  0.000000  0.545138  1
  Li  Li6  2  0.246828  0.500000  0.729184  1
  Li  Li7  2  0.500000  0.265834  0.000000  1
  Co  Co8  2  0.235223  0.000000  0.874292  1
  Co  Co9  2  0.269863  0.500000  0.386489  1
  O  O10  4  0.210476  0.237642  0.977782  1
  O  O11  4  0.287419  0.268421  0.502054  1
  O  O12  2  0.035231  0.500000  0.275127  1
  O  O13  2  0.048146  0.000000  0.711409  1
  O  O14  2  0.458965  0.000000  0.783358  1
  O  O15  2  0.462649  0.500000  0.215799  1
