# generated using pymatgen
data_Li95Mn16O64
_symmetry_space_group_name_H-M   Pmm2
_cell_length_a   13.41891251
_cell_length_b   13.44009163
_cell_length_c   9.44544992
_cell_angle_alpha   90.00000000
_cell_angle_beta   90.00000000
_cell_angle_gamma   90.00000000
_symmetry_Int_Tables_number   25
_chemical_formula_structural   Li95Mn16O64
_chemical_formula_sum   'Li95 Mn16 O64'
_cell_volume   1703.50024619
_cell_formula_units_Z   1
loop_
 _symmetry_equiv_pos_site_id
 _symmetry_equiv_pos_as_xyz
  1  'x, y, z'
  2  '-x, -y, z'
  3  '-x, y, z'
  4  'x, -y, z'
loop_
 _atom_site_type_symbol
 _atom_site_label
 _atom_site_symmetry_multiplicity
 _atom_site_fract_x
 _atom_site_fract_y
 _atom_site_fract_z
 _atom_site_occupancy
  Li  Li1  4  0.107186  0.142527  0.377411  1
  Li  Li2  4  0.107477  0.358607  0.874965  1
  Li  Li3  4  0.107893  0.141893  0.876274  1
  Li  Li4  4  0.107955  0.357622  0.375150  1
  Li  Li5  4  0.128113  0.100110  0.128458  1
  Li  Li6  4  0.140536  0.107748  0.626112  1
  Li  Li7  4  0.141784  0.392116  0.124749  1
  Li  Li8  4  0.141872  0.391720  0.625100  1
  Li  Li9  4  0.246240  0.247623  0.141532  1
  Li  Li10  4  0.249455  0.250873  0.893525  1
  Li  Li11  4  0.249495  0.249146  0.391590  1
  Li  Li12  4  0.250064  0.249997  0.642758  1
  Li  Li13  4  0.355817  0.108501  0.123407  1
  Li  Li14  4  0.357279  0.390919  0.125138  1
  Li  Li15  4  0.357808  0.392232  0.625337  1
  Li  Li16  4  0.359263  0.108666  0.623739  1
  Li  Li17  4  0.391194  0.357994  0.375042  1
  Li  Li18  4  0.391459  0.141322  0.373593  1
  Li  Li19  4  0.391639  0.358495  0.875552  1
  Li  Li20  4  0.393016  0.143708  0.874567  1
  Li  Li21  1  0.000000  0.000000  0.341814  1
  Li  Li22  1  0.000000  0.000000  0.606590  1
  Li  Li23  1  0.000000  0.000000  0.868066  1
  Li  Li24  1  0.000000  0.500000  0.108385  1
  Li  Li25  1  0.000000  0.500000  0.358602  1
  Li  Li26  1  0.000000  0.500000  0.607978  1
  Li  Li27  1  0.000000  0.500000  0.857941  1
  Li  Li28  1  0.500000  0.000000  0.106219  1
  Li  Li29  1  0.500000  0.000000  0.357159  1
  Li  Li30  1  0.500000  0.000000  0.606867  1
  Li  Li31  1  0.500000  0.000000  0.854797  1
  Li  Li32  1  0.500000  0.500000  0.109147  1
  Li  Li33  1  0.500000  0.500000  0.358733  1
  Li  Li34  1  0.500000  0.500000  0.608382  1
  Li  Li35  1  0.500000  0.500000  0.858845  1
  Mn  Mn36  2  0.000000  0.250126  0.626216  1
  Mn  Mn37  2  0.000000  0.251942  0.125517  1
  Mn  Mn38  2  0.249152  0.000000  0.375024  1
  Mn  Mn39  2  0.249627  0.500000  0.374107  1
  Mn  Mn40  2  0.249974  0.500000  0.874892  1
  Mn  Mn41  2  0.251827  0.000000  0.872204  1
  Mn  Mn42  2  0.500000  0.250094  0.125694  1
  Mn  Mn43  2  0.500000  0.250921  0.623984  1
  O  O44  4  0.131858  0.251412  0.011101  1
  O  O45  4  0.133743  0.250013  0.515682  1
  O  O46  4  0.248129  0.131547  0.262395  1
  O  O47  4  0.249571  0.366212  0.263410  1
  O  O48  4  0.250548  0.366680  0.763463  1
  O  O49  4  0.251424  0.131409  0.766567  1
  O  O50  4  0.366728  0.248890  0.513203  1
  O  O51  4  0.366733  0.249733  0.013649  1
  O  O52  2  0.000000  0.116977  0.737469  1
  O  O53  2  0.000000  0.124267  0.243137  1
  O  O54  2  0.000000  0.383434  0.736455  1
  O  O55  2  0.000000  0.384237  0.237417  1
  O  O56  2  0.116968  0.500000  0.986524  1
  O  O57  2  0.117231  0.000000  0.486805  1
  O  O58  2  0.117306  0.500000  0.487403  1
  O  O59  2  0.124655  0.000000  0.973070  1
  O  O60  2  0.382622  0.500000  0.487149  1
  O  O61  2  0.382788  0.500000  0.987395  1
  O  O62  2  0.382854  0.000000  0.981902  1
  O  O63  2  0.382896  0.000000  0.486448  1
  O  O64  2  0.500000  0.116188  0.235428  1
  O  O65  2  0.500000  0.117286  0.735648  1
  O  O66  2  0.500000  0.382628  0.237742  1
  O  O67  2  0.500000  0.382946  0.737103  1
