# generated using pymatgen
data_Li9Co7O16
_symmetry_space_group_name_H-M   C2/m
_cell_length_a   19.41931108
_cell_length_b   5.76042498
_cell_length_c   4.98847902
_cell_angle_alpha   90.00000000
_cell_angle_beta   100.02296190
_cell_angle_gamma   90.00000000
_symmetry_Int_Tables_number   12
_chemical_formula_structural   Li9Co7O16
_chemical_formula_sum   'Li18 Co14 O32'
_cell_volume   549.51205871
_cell_formula_units_Z   2
loop_
 _symmetry_equiv_pos_site_id
 _symmetry_equiv_pos_as_xyz
  1  'x, y, z'
  2  '-x, -y, -z'
  3  '-x, y, -z'
  4  'x, -y, z'
  5  'x+1/2, y+1/2, z'
  6  '-x+1/2, -y+1/2, -z'
  7  '-x+1/2, y+1/2, -z'
  8  'x+1/2, -y+1/2, z'
loop_
 _atom_site_type_symbol
 _atom_site_label
 _atom_site_symmetry_multiplicity
 _atom_site_fract_x
 _atom_site_fract_y
 _atom_site_fract_z
 _atom_site_occupancy
  Li  Li1  8  0.121015  0.254635  0.249508  1
  Li  Li2  4  0.120164  0.500000  0.750294  1
  Li  Li3  4  0.121505  0.000000  0.744736  1
  Li  Li4  2  0.000000  0.500000  0.000000  1
  Co  Co5  4  0.000000  0.253529  0.500000  1
  Co  Co6  4  0.249393  0.500000  0.500185  1
  Co  Co7  4  0.250000  0.250000  0.000000  1
  Co  Co8  2  0.000000  0.000000  0.000000  1
  O  O9  8  0.054514  0.230828  0.861034  1
  O  O10  8  0.192467  0.248510  0.619051  1
  O  O11  4  0.053387  0.000000  0.364986  1
  O  O12  4  0.055326  0.500000  0.397497  1
  O  O13  4  0.192128  0.500000  0.147772  1
  O  O14  4  0.193829  0.000000  0.147262  1
