# generated using pymatgen
data_Li9Co7O16
_symmetry_space_group_name_H-M   C2/m
_cell_length_a   10.30569390
_cell_length_b   11.39069702
_cell_length_c   5.10019840
_cell_angle_alpha   90.00000000
_cell_angle_beta   111.10794544
_cell_angle_gamma   90.00000000
_symmetry_Int_Tables_number   12
_chemical_formula_structural   Li9Co7O16
_chemical_formula_sum   'Li18 Co14 O32'
_cell_volume   558.53627029
_cell_formula_units_Z   2
loop_
 _symmetry_equiv_pos_site_id
 _symmetry_equiv_pos_as_xyz
  1  'x, y, z'
  2  '-x, -y, -z'
  3  '-x, y, -z'
  4  'x+1/2, -y+1/2, z'
  5  'x+1/2, y+1/2, z'
  6  '-x+1/2, -y+1/2, -z'
  7  '-x+1/2, y+1/2, -z'
  8  'x, -y, z'
loop_
 _atom_site_type_symbol
 _atom_site_label
 _atom_site_symmetry_multiplicity
 _atom_site_fract_x
 _atom_site_fract_y
 _atom_site_fract_z
 _atom_site_occupancy
  Li  Li1  8  0.244235  0.122633  0.497656  1
  Li  Li2  4  0.243728  0.000000  0.988765  1
  Li  Li3  4  0.250000  0.250000  0.000000  1
  Li  Li4  2  0.000000  0.000000  0.500000  1
  Co  Co5  4  0.000000  0.122704  0.000000  1
  Co  Co6  4  0.000000  0.245160  0.500000  1
  Co  Co7  4  0.000000  0.375324  0.000000  1
  Co  Co8  2  0.000000  0.500000  0.500000  1
  O  O9  8  0.107500  0.246187  0.254047  1
  O  O10  8  0.108574  0.374225  0.728196  1
  O  O11  8  0.115372  0.861268  0.735691  1
  O  O12  4  0.112895  0.000000  0.214306  1
  O  O13  4  0.122979  0.500000  0.236459  1
