# generated using pymatgen
data_Li9Co7O16
_symmetry_space_group_name_H-M   C2/m
_cell_length_a   19.40908101
_cell_length_b   5.82049931
_cell_length_c   5.12058582
_cell_angle_alpha   90.00000000
_cell_angle_beta   100.20241477
_cell_angle_gamma   90.00000000
_symmetry_Int_Tables_number   12
_chemical_formula_structural   Li9Co7O16
_chemical_formula_sum   'Li18 Co14 O32'
_cell_volume   569.32858978
_cell_formula_units_Z   2
loop_
 _symmetry_equiv_pos_site_id
 _symmetry_equiv_pos_as_xyz
  1  'x, y, z'
  2  '-x, -y, -z'
  3  '-x, y, -z'
  4  'x, -y, z'
  5  'x+1/2, y+1/2, z'
  6  '-x+1/2, -y+1/2, -z'
  7  '-x+1/2, y+1/2, -z'
  8  'x+1/2, -y+1/2, z'
loop_
 _atom_site_type_symbol
 _atom_site_label
 _atom_site_symmetry_multiplicity
 _atom_site_fract_x
 _atom_site_fract_y
 _atom_site_fract_z
 _atom_site_occupancy
  Li  Li1  4  0.000000  0.254707  0.500000  1
  Li  Li2  4  0.124731  0.500000  0.753005  1
  Li  Li3  4  0.124803  0.000000  0.753184  1
  Li  Li4  4  0.250000  0.250000  0.000000  1
  Li  Li5  2  0.000000  0.500000  0.000000  1
  Co  Co6  8  0.121589  0.253884  0.244658  1
  Co  Co7  4  0.249845  0.000000  0.501910  1
  Co  Co8  2  0.000000  0.000000  0.000000  1
  O  O9  8  0.059173  0.228098  0.897949  1
  O  O10  8  0.189586  0.246082  0.608060  1
  O  O11  4  0.059365  0.000000  0.343579  1
  O  O12  4  0.069113  0.500000  0.375177  1
  O  O13  4  0.183689  0.000000  0.146470  1
  O  O14  4  0.185623  0.500000  0.138223  1
