# generated using pymatgen
data_Li9Co7O16
_symmetry_space_group_name_H-M   P-1
_cell_length_a   2.97977513
_cell_length_b   9.86659187
_cell_length_c   10.27513821
_cell_angle_alpha   73.43270748
_cell_angle_beta   81.74256709
_cell_angle_gamma   88.58683858
_symmetry_Int_Tables_number   2
_chemical_formula_structural   Li9Co7O16
_chemical_formula_sum   'Li9 Co7 O16'
_cell_volume   286.50610752
_cell_formula_units_Z   1
loop_
 _symmetry_equiv_pos_site_id
 _symmetry_equiv_pos_as_xyz
  1  'x, y, z'
  2  '-x, -y, -z'
loop_
 _atom_site_type_symbol
 _atom_site_label
 _atom_site_symmetry_multiplicity
 _atom_site_fract_x
 _atom_site_fract_y
 _atom_site_fract_z
 _atom_site_occupancy
  Li  Li1  2  0.064584  0.813804  0.872296  1
  Li  Li2  2  0.182041  0.437959  0.626454  1
  Li  Li3  2  0.313311  0.061479  0.374436  1
  Li  Li4  2  0.439069  0.683066  0.123476  1
  Li  Li5  1  0.000000  0.500000  0.000000  1
  Co  Co6  2  0.124833  0.123889  0.746968  1
  Co  Co7  2  0.253926  0.748388  0.502753  1
  Co  Co8  2  0.377792  0.380077  0.240612  1
  Co  Co9  1  0.500000  0.000000  0.000000  1
  O  O10  2  0.034157  0.148348  0.935048  1
  O  O11  2  0.061273  0.481517  0.807357  1
  O  O12  2  0.198632  0.771030  0.683277  1
  O  O13  2  0.215132  0.100890  0.565716  1
  O  O14  2  0.276141  0.397036  0.426634  1
  O  O15  2  0.349966  0.725169  0.319160  1
  O  O16  2  0.397972  0.020841  0.187601  1
  O  O17  2  0.456529  0.343293  0.082889  1
