# generated using pymatgen
data_Li9Co7O16
_symmetry_space_group_name_H-M   P-1
_cell_length_a   5.01559642
_cell_length_b   6.46155413
_cell_length_c   8.59418577
_cell_angle_alpha   97.15184049
_cell_angle_beta   94.98378671
_cell_angle_gamma   96.87043977
_symmetry_Int_Tables_number   2
_chemical_formula_structural   Li9Co7O16
_chemical_formula_sum   'Li9 Co7 O16'
_cell_volume   272.90557061
_cell_formula_units_Z   1
loop_
 _symmetry_equiv_pos_site_id
 _symmetry_equiv_pos_as_xyz
  1  'x, y, z'
  2  '-x, -y, -z'
loop_
 _atom_site_type_symbol
 _atom_site_label
 _atom_site_symmetry_multiplicity
 _atom_site_fract_x
 _atom_site_fract_y
 _atom_site_fract_z
 _atom_site_occupancy
  Li  Li1  2  0.247534  0.805972  0.182972  1
  Li  Li2  2  0.248342  0.317784  0.696541  1
  Li  Li3  2  0.250498  0.563542  0.437492  1
  Li  Li4  2  0.251317  0.072481  0.939887  1
  Li  Li5  1  0.500000  0.500000  0.000000  1
  Co  Co6  2  0.000235  0.376005  0.124886  1
  Co  Co7  2  0.000629  0.125537  0.374279  1
  Co  Co8  2  0.499894  0.255873  0.245084  1
  Co  Co9  1  0.500000  0.000000  0.500000  1
  O  O10  2  0.106190  0.358725  0.915890  1
  O  O11  2  0.118475  0.848094  0.409822  1
  O  O12  2  0.142885  0.114883  0.163329  1
  O  O13  2  0.143348  0.607419  0.669027  1
  O  O14  2  0.359098  0.772626  0.945101  1
  O  O15  2  0.361628  0.500935  0.217648  1
  O  O16  2  0.380636  0.265979  0.454747  1
  O  O17  2  0.383548  0.011765  0.708250  1
