# generated using pymatgen
data_Li9Co7O16
_symmetry_space_group_name_H-M   P2/m
_cell_length_a   4.95490483
_cell_length_b   11.36797089
_cell_length_c   5.03890216
_cell_angle_alpha   90.00000000
_cell_angle_beta   109.72796242
_cell_angle_gamma   90.00000000
_symmetry_Int_Tables_number   10
_chemical_formula_structural   Li9Co7O16
_chemical_formula_sum   'Li9 Co7 O16'
_cell_volume   267.16833608
_cell_formula_units_Z   1
loop_
 _symmetry_equiv_pos_site_id
 _symmetry_equiv_pos_as_xyz
  1  'x, y, z'
  2  '-x, -y, -z'
  3  '-x, y, -z'
  4  'x, -y, z'
loop_
 _atom_site_type_symbol
 _atom_site_label
 _atom_site_symmetry_multiplicity
 _atom_site_fract_x
 _atom_site_fract_y
 _atom_site_fract_z
 _atom_site_occupancy
  Li  Li1  2  0.000000  0.251416  0.500000  1
  Li  Li2  2  0.500000  0.126259  0.500000  1
  Li  Li3  2  0.500000  0.383527  0.500000  1
  Li  Li4  1  0.000000  0.000000  0.500000  1
  Li  Li5  1  0.000000  0.500000  0.500000  1
  Li  Li6  1  0.500000  0.500000  0.000000  1
  Co  Co7  2  0.000000  0.125381  0.000000  1
  Co  Co8  2  0.000000  0.375781  0.000000  1
  Co  Co9  2  0.500000  0.254186  0.000000  1
  Co  Co10  1  0.500000  0.000000  0.000000  1
  O  O11  4  0.244130  0.249234  0.218235  1
  O  O12  4  0.252866  0.363824  0.781215  1
  O  O13  4  0.259755  0.126038  0.787986  1
  O  O14  2  0.220188  0.500000  0.230453  1
  O  O15  2  0.225056  0.000000  0.231651  1
