# generated using pymatgen
data_Li9Co7O16
_symmetry_space_group_name_H-M   P2/m
_cell_length_a   5.02808821
_cell_length_b   5.71913561
_cell_length_c   9.75781927
_cell_angle_alpha   90.00000000
_cell_angle_beta   99.42650700
_cell_angle_gamma   90.00000000
_symmetry_Int_Tables_number   10
_chemical_formula_structural   Li9Co7O16
_chemical_formula_sum   'Li9 Co7 O16'
_cell_volume   276.80988781
_cell_formula_units_Z   1
loop_
 _symmetry_equiv_pos_site_id
 _symmetry_equiv_pos_as_xyz
  1  'x, y, z'
  2  '-x, -y, -z'
  3  '-x, y, -z'
  4  'x, -y, z'
loop_
 _atom_site_type_symbol
 _atom_site_label
 _atom_site_symmetry_multiplicity
 _atom_site_fract_x
 _atom_site_fract_y
 _atom_site_fract_z
 _atom_site_occupancy
  Li  Li1  4  0.248273  0.252872  0.246793  1
  Li  Li2  2  0.245468  0.500000  0.753819  1
  Li  Li3  2  0.247377  0.000000  0.751704  1
  Li  Li4  1  0.000000  0.500000  0.000000  1
  Co  Co5  2  0.000000  0.249523  0.500000  1
  Co  Co6  2  0.500000  0.253104  0.000000  1
  Co  Co7  1  0.000000  0.000000  0.000000  1
  Co  Co8  1  0.500000  0.000000  0.500000  1
  Co  Co9  1  0.500000  0.500000  0.500000  1
  O  O10  4  0.144603  0.229157  0.894924  1
  O  O11  4  0.374288  0.250185  0.619657  1
  O  O12  2  0.125305  0.500000  0.378592  1
  O  O13  2  0.126393  0.000000  0.380169  1
  O  O14  2  0.363815  0.000000  0.104675  1
  O  O15  2  0.401129  0.500000  0.107855  1
