# generated using pymatgen
data_Li9Co9O17
_symmetry_space_group_name_H-M   P1
_cell_length_a   6.62518056
_cell_length_b   7.73918325
_cell_length_c   7.80666711
_cell_angle_alpha   64.97748757
_cell_angle_beta   85.68003919
_cell_angle_gamma   65.20972533
_symmetry_Int_Tables_number   1
_chemical_formula_structural   Li9Co9O17
_chemical_formula_sum   'Li9 Co9 O17'
_cell_volume   326.73978702
_cell_formula_units_Z   1
loop_
 _symmetry_equiv_pos_site_id
 _symmetry_equiv_pos_as_xyz
  1  'x, y, z'
loop_
 _atom_site_type_symbol
 _atom_site_label
 _atom_site_symmetry_multiplicity
 _atom_site_fract_x
 _atom_site_fract_y
 _atom_site_fract_z
 _atom_site_occupancy
  Li  Li1  1  0.115639  0.054306  0.613902  1
  Li  Li2  1  0.221641  0.613705  0.723284  1
  Li  Li3  1  0.332606  0.169321  0.833394  1
  Li  Li4  1  0.443992  0.721045  0.944215  1
  Li  Li5  1  0.547384  0.299468  0.036134  1
  Li  Li6  1  0.673008  0.812018  0.156483  1
  Li  Li7  1  0.771475  0.389474  0.275309  1
  Li  Li8  1  0.919748  0.933892  0.401077  1
  Li  Li9  1  0.998139  0.502436  0.501224  1
  Co  Co10  1  0.000421  0.000963  0.000595  1
  Co  Co11  1  0.111718  0.553843  0.112831  1
  Co  Co12  1  0.203696  0.112309  0.220874  1
  Co  Co13  1  0.337271  0.664864  0.336707  1
  Co  Co14  1  0.439358  0.229054  0.450406  1
  Co  Co15  1  0.553449  0.771746  0.562204  1
  Co  Co16  1  0.666575  0.341166  0.662295  1
  Co  Co17  1  0.780215  0.889354  0.778723  1
  Co  Co18  1  0.888220  0.443498  0.887665  1
  O  O19  1  0.008896  0.744408  0.241689  1
  O  O20  1  0.102438  0.807350  0.872192  1
  O  O21  1  0.145988  0.293087  0.361201  1
  O  O22  1  0.206984  0.365774  0.980544  1
  O  O23  1  0.236186  0.864521  0.464176  1
  O  O24  1  0.329930  0.905419  0.095761  1
  O  O25  1  0.339782  0.434430  0.575788  1
  O  O26  1  0.437570  0.450942  0.213912  1
  O  O27  1  0.455519  0.988864  0.668353  1
  O  O28  1  0.572872  0.516692  0.806338  1
  O  O29  1  0.659726  0.590147  0.418456  1
  O  O30  1  0.674778  0.077257  0.908779  1
  O  O31  1  0.749088  0.149744  0.526323  1
  O  O32  1  0.788764  0.634947  0.019879  1
  O  O33  1  0.876735  0.705545  0.646870  1
  O  O34  1  0.882456  0.190781  0.127677  1
  O  O35  1  0.990670  0.248696  0.756469  1
