# generated using pymatgen
data_Li9Co7O16
_symmetry_space_group_name_H-M   C2/m
_cell_length_a   16.66321089
_cell_length_b   5.82657498
_cell_length_c   5.87045314
_cell_angle_alpha   90.00000000
_cell_angle_beta   90.53211731
_cell_angle_gamma   90.00000000
_symmetry_Int_Tables_number   12
_chemical_formula_structural   Li9Co7O16
_chemical_formula_sum   'Li18 Co14 O32'
_cell_volume   569.93447329
_cell_formula_units_Z   2
loop_
 _symmetry_equiv_pos_site_id
 _symmetry_equiv_pos_as_xyz
  1  'x, y, z'
  2  '-x, -y, -z'
  3  '-x, y, -z'
  4  'x, -y, z'
  5  'x+1/2, y+1/2, z'
  6  '-x+1/2, -y+1/2, -z'
  7  '-x+1/2, y+1/2, -z'
  8  'x+1/2, -y+1/2, z'
loop_
 _atom_site_type_symbol
 _atom_site_label
 _atom_site_symmetry_multiplicity
 _atom_site_fract_x
 _atom_site_fract_y
 _atom_site_fract_z
 _atom_site_occupancy
  Li  Li1  8  0.122997  0.253026  0.751563  1
  Li  Li2  4  0.249921  0.500000  0.000428  1
  Li  Li3  2  0.000000  0.000000  0.500000  1
  Li  Li4  2  0.000000  0.500000  0.000000  1
  Li  Li5  2  0.000000  0.500000  0.500000  1
  Co  Co6  8  0.122157  0.253586  0.243009  1
  Co  Co7  4  0.249673  0.500000  0.501596  1
  Co  Co8  2  0.000000  0.000000  0.000000  1
  O  O9  8  0.004645  0.228271  0.229973  1
  O  O10  8  0.246699  0.250562  0.264557  1
  O  O11  4  0.115807  0.000000  0.003819  1
  O  O12  4  0.126826  0.500000  0.491629  1
  O  O13  4  0.127381  0.500000  0.021417  1
  O  O14  4  0.129159  0.000000  0.479057  1
