# generated using pymatgen
data_Li9Co7O16
_symmetry_space_group_name_H-M   P-1
_cell_length_a   3.00941100
_cell_length_b   6.37333213
_cell_length_c   15.45779004
_cell_angle_alpha   89.63620820
_cell_angle_beta   88.77779806
_cell_angle_gamma   76.70109221
_symmetry_Int_Tables_number   2
_chemical_formula_structural   Li9Co7O16
_chemical_formula_sum   'Li9 Co7 O16'
_cell_volume   288.46345073
_cell_formula_units_Z   1
loop_
 _symmetry_equiv_pos_site_id
 _symmetry_equiv_pos_as_xyz
  1  'x, y, z'
  2  '-x, -y, -z'
loop_
 _atom_site_type_symbol
 _atom_site_label
 _atom_site_symmetry_multiplicity
 _atom_site_fract_x
 _atom_site_fract_y
 _atom_site_fract_z
 _atom_site_occupancy
  Li  Li1  2  0.058741  0.880132  0.186522  1
  Li  Li2  2  0.187119  0.625308  0.562477  1
  Li  Li3  2  0.318691  0.369091  0.938639  1
  Li  Li4  2  0.437518  0.123015  0.312760  1
  Li  Li5  1  0.000000  0.000000  0.000000  1
  Co  Co6  2  0.127185  0.746493  0.374761  1
  Co  Co7  2  0.247605  0.501983  0.751608  1
  Co  Co8  2  0.380975  0.242451  0.119506  1
  Co  Co9  1  0.500000  0.000000  0.500000  1
  O  O10  2  0.018852  0.953441  0.591497  1
  O  O11  2  0.066029  0.795574  0.784929  1
  O  O12  2  0.181246  0.691681  0.959924  1
  O  O13  2  0.236010  0.540967  0.157387  1
  O  O14  2  0.278010  0.449242  0.341107  1
  O  O15  2  0.353267  0.299747  0.533626  1
  O  O16  2  0.390667  0.204041  0.717024  1
  O  O17  2  0.481124  0.033018  0.901476  1
