# generated using pymatgen
data_Li9Co7O16
_symmetry_space_group_name_H-M   P2/m
_cell_length_a   5.84056353
_cell_length_b   5.78611752
_cell_length_c   8.31465792
_cell_angle_alpha   90.00000000
_cell_angle_beta   90.57006800
_cell_angle_gamma   90.00000000
_symmetry_Int_Tables_number   10
_chemical_formula_structural   Li9Co7O16
_chemical_formula_sum   'Li9 Co7 O16'
_cell_volume   280.97319633
_cell_formula_units_Z   1
loop_
 _symmetry_equiv_pos_site_id
 _symmetry_equiv_pos_as_xyz
  1  'x, y, z'
  2  '-x, -y, -z'
  3  '-x, y, -z'
  4  'x, -y, z'
loop_
 _atom_site_type_symbol
 _atom_site_label
 _atom_site_symmetry_multiplicity
 _atom_site_fract_x
 _atom_site_fract_y
 _atom_site_fract_z
 _atom_site_occupancy
  Li  Li1  4  0.249040  0.252593  0.753585  1
  Li  Li2  1  0.000000  0.000000  0.500000  1
  Li  Li3  1  0.000000  0.500000  0.000000  1
  Li  Li4  1  0.000000  0.500000  0.500000  1
  Li  Li5  1  0.500000  0.000000  0.000000  1
  Li  Li6  1  0.500000  0.500000  0.000000  1
  Co  Co7  4  0.243898  0.253549  0.244956  1
  Co  Co8  1  0.000000  0.000000  0.000000  1
  Co  Co9  1  0.500000  0.000000  0.500000  1
  Co  Co10  1  0.500000  0.500000  0.500000  1
  O  O11  4  0.230282  0.227882  0.008617  1
  O  O12  4  0.271673  0.241020  0.494741  1
  O  O13  2  0.005181  0.000000  0.231600  1
  O  O14  2  0.021039  0.500000  0.255300  1
  O  O15  2  0.480466  0.000000  0.267897  1
  O  O16  2  0.491903  0.500000  0.251838  1
