# generated using pymatgen
data_Li9Mn7O16
_symmetry_space_group_name_H-M   C2/m
_cell_length_a   19.48002097
_cell_length_b   5.74093091
_cell_length_c   5.33918954
_cell_angle_alpha   90.00000000
_cell_angle_beta   96.56857502
_cell_angle_gamma   90.00000000
_symmetry_Int_Tables_number   12
_chemical_formula_structural   Li9Mn7O16
_chemical_formula_sum   'Li18 Mn14 O32'
_cell_volume   593.18043986
_cell_formula_units_Z   2
loop_
 _symmetry_equiv_pos_site_id
 _symmetry_equiv_pos_as_xyz
  1  'x, y, z'
  2  '-x, -y, -z'
  3  '-x, y, -z'
  4  'x, -y, z'
  5  'x+1/2, y+1/2, z'
  6  '-x+1/2, -y+1/2, -z'
  7  '-x+1/2, y+1/2, -z'
  8  'x+1/2, -y+1/2, z'
loop_
 _atom_site_type_symbol
 _atom_site_label
 _atom_site_symmetry_multiplicity
 _atom_site_fract_x
 _atom_site_fract_y
 _atom_site_fract_z
 _atom_site_occupancy
  Li  Li1  8  0.124882  0.254376  0.251683  1
  Li  Li2  4  0.119747  0.500000  0.752212  1
  Li  Li3  4  0.122276  0.000000  0.743914  1
  Li  Li4  2  0.000000  0.500000  0.000000  1
  Mn  Mn5  4  0.000000  0.251272  0.500000  1
  Mn  Mn6  4  0.249982  0.500000  0.500453  1
  Mn  Mn7  4  0.250000  0.250000  0.000000  1
  Mn  Mn8  2  0.000000  0.000000  0.000000  1
  O  O9  8  0.051443  0.240800  0.838137  1
  O  O10  8  0.191674  0.249833  0.604969  1
  O  O11  4  0.057841  0.500000  0.398074  1
  O  O12  4  0.058232  0.000000  0.389856  1
  O  O13  4  0.189653  0.500000  0.100806  1
  O  O14  4  0.190336  0.000000  0.101104  1
