# generated using pymatgen
data_Li9Mn7O16
_symmetry_space_group_name_H-M   P-1
_cell_length_a   5.34161799
_cell_length_b   5.74368539
_cell_length_c   9.90417286
_cell_angle_alpha   98.33694336
_cell_angle_beta   99.05048176
_cell_angle_gamma   90.00157726
_symmetry_Int_Tables_number   2
_chemical_formula_structural   Li9Mn7O16
_chemical_formula_sum   'Li9 Mn7 O16'
_cell_volume   296.83039371
_cell_formula_units_Z   1
loop_
 _symmetry_equiv_pos_site_id
 _symmetry_equiv_pos_as_xyz
  1  'x, y, z'
  2  '-x, -y, -z'
loop_
 _atom_site_type_symbol
 _atom_site_label
 _atom_site_symmetry_multiplicity
 _atom_site_fract_x
 _atom_site_fract_y
 _atom_site_fract_z
 _atom_site_occupancy
  Li  Li1  2  0.126565  0.683265  0.749931  1
  Li  Li2  2  0.126575  0.191681  0.749904  1
  Li  Li3  2  0.366935  0.559826  0.239033  1
  Li  Li4  2  0.377976  0.060989  0.244208  1
  Li  Li5  1  0.000000  0.500000  0.000000  1
  Mn  Mn6  2  0.249346  0.874228  0.497301  1
  Mn  Mn7  2  0.250176  0.374366  0.497189  1
  Mn  Mn8  2  0.499990  0.251302  0.999996  1
  Mn  Mn9  1  0.000000  0.000000  0.000000  1
  O  O10  2  0.086131  0.094972  0.379441  1
  O  O11  2  0.086464  0.594413  0.378343  1
  O  O12  2  0.213439  0.784879  0.103055  1
  O  O13  2  0.213479  0.266634  0.103070  1
  O  O14  2  0.331636  0.970868  0.883499  1
  O  O15  2  0.340322  0.471047  0.884172  1
  O  O16  2  0.410221  0.653924  0.615880  1
  O  O17  2  0.410533  0.154046  0.616041  1
