# generated using pymatgen
data_Li9Mn15O32
_symmetry_space_group_name_H-M   P1
_cell_length_a   8.36423390
_cell_length_b   8.40519247
_cell_length_c   10.23122205
_cell_angle_alpha   65.79630385
_cell_angle_beta   66.03187440
_cell_angle_gamma   89.83583429
_symmetry_Int_Tables_number   1
_chemical_formula_structural   Li9Mn15O32
_chemical_formula_sum   'Li9 Mn15 O32'
_cell_volume   587.81059755
_cell_formula_units_Z   1
loop_
 _symmetry_equiv_pos_site_id
 _symmetry_equiv_pos_as_xyz
  1  'x, y, z'
loop_
 _atom_site_type_symbol
 _atom_site_label
 _atom_site_symmetry_multiplicity
 _atom_site_fract_x
 _atom_site_fract_y
 _atom_site_fract_z
 _atom_site_occupancy
  Li  Li1  1  0.068164  0.807546  0.622197  1
  Li  Li2  1  0.187325  0.938364  0.881621  1
  Li  Li3  1  0.318902  0.567897  0.121006  1
  Li  Li4  1  0.434517  0.692299  0.372948  1
  Li  Li5  1  0.499236  0.998455  0.001383  1
  Li  Li6  1  0.562407  0.306255  0.626076  1
  Li  Li7  1  0.682227  0.434475  0.879874  1
  Li  Li8  1  0.809866  0.058621  0.122082  1
  Li  Li9  1  0.929174  0.192731  0.379113  1
  Mn  Mn10  1  0.003124  0.502291  0.499991  1
  Mn  Mn11  1  0.126095  0.876569  0.253668  1
  Mn  Mn12  1  0.131647  0.365981  0.751593  1
  Mn  Mn13  1  0.245877  0.241352  0.006705  1
  Mn  Mn14  1  0.250855  0.247169  0.502565  1
  Mn  Mn15  1  0.371337  0.121967  0.251225  1
  Mn  Mn16  1  0.378118  0.620186  0.748950  1
  Mn  Mn17  1  0.499952  0.000842  0.500510  1
  Mn  Mn18  1  0.618895  0.383689  0.250362  1
  Mn  Mn19  1  0.628522  0.881507  0.747783  1
  Mn  Mn20  1  0.748225  0.754636  0.994896  1
  Mn  Mn21  1  0.749172  0.751500  0.499206  1
  Mn  Mn22  1  0.865256  0.628504  0.252713  1
  Mn  Mn23  1  0.874988  0.120929  0.749827  1
  Mn  Mn24  1  0.997644  0.500681  0.999806  1
  O  O25  1  0.015836  0.255776  0.511101  1
  O  O26  1  0.018748  0.268562  0.985334  1
  O  O27  1  0.118949  0.140295  0.736150  1
  O  O28  1  0.120449  0.639603  0.269493  1
  O  O29  1  0.138828  0.118898  0.242417  1
  O  O30  1  0.151129  0.598443  0.740545  1
  O  O31  1  0.234708  0.005298  0.028719  1
  O  O32  1  0.240825  0.488177  0.986782  1
  O  O33  1  0.249423  0.464674  0.521147  1
  O  O34  1  0.269603  0.020120  0.491032  1
  O  O35  1  0.347325  0.346734  0.777569  1
  O  O36  1  0.348575  0.895547  0.258288  1
  O  O37  1  0.375299  0.350909  0.268797  1
  O  O38  1  0.406199  0.889911  0.731394  1
  O  O39  1  0.464324  0.237617  0.025477  1
  O  O40  1  0.486331  0.235320  0.492550  1
  O  O41  1  0.510342  0.761573  0.511602  1
  O  O42  1  0.532345  0.765041  0.971097  1
  O  O43  1  0.593690  0.117074  0.268227  1
  O  O44  1  0.622351  0.650509  0.733047  1
  O  O45  1  0.627570  0.644092  0.218083  1
  O  O46  1  0.653890  0.108846  0.742486  1
  O  O47  1  0.729662  0.980900  0.508598  1
  O  O48  1  0.751267  0.530175  0.489064  1
  O  O49  1  0.761464  0.514568  0.004975  1
  O  O50  1  0.763224  0.991949  0.974099  1
  O  O51  1  0.842821  0.394659  0.259140  1
  O  O52  1  0.860865  0.884700  0.755781  1
  O  O53  1  0.881750  0.857609  0.267317  1
  O  O54  1  0.901001  0.363265  0.736731  1
  O  O55  1  0.976661  0.729543  0.013469  1
  O  O56  1  0.984282  0.746429  0.491132  1
