# generated using pymatgen
data_Li9Mn7O16
_symmetry_space_group_name_H-M   C2/m
_cell_length_a   10.67348062
_cell_length_b   5.74669628
_cell_length_c   9.73266986
_cell_angle_alpha   90.00000000
_cell_angle_beta   96.55095055
_cell_angle_gamma   90.00000000
_symmetry_Int_Tables_number   12
_chemical_formula_structural   Li9Mn7O16
_chemical_formula_sum   'Li18 Mn14 O32'
_cell_volume   593.07744498
_cell_formula_units_Z   2
loop_
 _symmetry_equiv_pos_site_id
 _symmetry_equiv_pos_as_xyz
  1  'x, y, z'
  2  '-x, -y, -z'
  3  '-x, y, -z'
  4  'x, -y, z'
  5  'x+1/2, y+1/2, z'
  6  '-x+1/2, -y+1/2, -z'
  7  '-x+1/2, y+1/2, -z'
  8  'x+1/2, -y+1/2, z'
loop_
 _atom_site_type_symbol
 _atom_site_label
 _atom_site_symmetry_multiplicity
 _atom_site_fract_x
 _atom_site_fract_y
 _atom_site_fract_z
 _atom_site_occupancy
  Li  Li1  8  0.125840  0.256075  0.249590  1
  Li  Li2  4  0.122943  0.500000  0.759209  1
  Li  Li3  4  0.128646  0.000000  0.756395  1
  Li  Li4  2  0.000000  0.500000  0.000000  1
  Mn  Mn5  4  0.000000  0.249919  0.500000  1
  Mn  Mn6  4  0.249631  0.000000  0.499180  1
  Mn  Mn7  4  0.250000  0.250000  0.000000  1
  Mn  Mn8  2  0.000000  0.000000  0.000000  1
  O  O9  8  0.080496  0.238886  0.896570  1
  O  O10  8  0.197177  0.249492  0.616635  1
  O  O11  4  0.050639  0.500000  0.379731  1
  O  O12  4  0.051363  0.000000  0.380616  1
  O  O13  4  0.193865  0.500000  0.113646  1
  O  O14  4  0.199495  0.000000  0.117865  1
