# generated using pymatgen
data_Li9Mn7O16
_symmetry_space_group_name_H-M   C2/m
_cell_length_a   10.54637959
_cell_length_b   11.50681499
_cell_length_c   5.34049540
_cell_angle_alpha   90.00000000
_cell_angle_beta   113.28233352
_cell_angle_gamma   90.00000000
_symmetry_Int_Tables_number   12
_chemical_formula_structural   Li9Mn7O16
_chemical_formula_sum   'Li18 Mn14 O32'
_cell_volume   595.32144652
_cell_formula_units_Z   2
loop_
 _symmetry_equiv_pos_site_id
 _symmetry_equiv_pos_as_xyz
  1  'x, y, z'
  2  '-x, -y, -z'
  3  '-x, y, -z'
  4  'x, -y, z'
  5  'x+1/2, y+1/2, z'
  6  '-x+1/2, -y+1/2, -z'
  7  '-x+1/2, y+1/2, -z'
  8  'x+1/2, -y+1/2, z'
loop_
 _atom_site_type_symbol
 _atom_site_label
 _atom_site_symmetry_multiplicity
 _atom_site_fract_x
 _atom_site_fract_y
 _atom_site_fract_z
 _atom_site_occupancy
  Li  Li1  8  0.249559  0.377245  0.507058  1
  Li  Li2  4  0.241762  0.000000  0.990534  1
  Li  Li3  4  0.250000  0.250000  0.000000  1
  Li  Li4  2  0.000000  0.000000  0.500000  1
  Mn  Mn5  4  0.000000  0.124463  0.000000  1
  Mn  Mn6  4  0.000000  0.246448  0.500000  1
  Mn  Mn7  4  0.000000  0.374333  0.000000  1
  Mn  Mn8  2  0.000000  0.500000  0.500000  1
  O  O9  8  0.104770  0.869625  0.766559  1
  O  O10  8  0.115813  0.375083  0.724181  1
  O  O11  8  0.117241  0.248865  0.225606  1
  O  O12  4  0.115926  0.000000  0.218948  1
  O  O13  4  0.120623  0.500000  0.223078  1
