# generated using pymatgen
data_Li9Mn7O16
_symmetry_space_group_name_H-M   P2/m
_cell_length_a   5.27709982
_cell_length_b   11.47637218
_cell_length_c   5.33776276
_cell_angle_alpha   90.00000000
_cell_angle_beta   113.51776375
_cell_angle_gamma   90.00000000
_symmetry_Int_Tables_number   10
_chemical_formula_structural   Li9Mn7O16
_chemical_formula_sum   'Li9 Mn7 O16'
_cell_volume   296.41379774
_cell_formula_units_Z   1
loop_
 _symmetry_equiv_pos_site_id
 _symmetry_equiv_pos_as_xyz
  1  'x, y, z'
  2  '-x, -y, -z'
  3  '-x, y, -z'
  4  'x, -y, z'
loop_
 _atom_site_type_symbol
 _atom_site_label
 _atom_site_symmetry_multiplicity
 _atom_site_fract_x
 _atom_site_fract_y
 _atom_site_fract_z
 _atom_site_occupancy
  Li  Li1  2  0.500000  0.121286  0.500000  1
  Li  Li2  2  0.500000  0.248203  0.000000  1
  Li  Li3  2  0.500000  0.375949  0.500000  1
  Li  Li4  1  0.000000  0.000000  0.500000  1
  Li  Li5  1  0.500000  0.000000  0.000000  1
  Li  Li6  1  0.500000  0.500000  0.000000  1
  Mn  Mn7  2  0.000000  0.123394  0.000000  1
  Mn  Mn8  2  0.000000  0.246953  0.500000  1
  Mn  Mn9  2  0.000000  0.373788  0.000000  1
  Mn  Mn10  1  0.000000  0.500000  0.500000  1
  O  O11  4  0.208339  0.129770  0.764627  1
  O  O12  4  0.232817  0.374802  0.724153  1
  O  O13  4  0.235335  0.247252  0.225630  1
  O  O14  2  0.234578  0.500000  0.221346  1
  O  O15  2  0.236368  0.000000  0.219693  1
