# generated using pymatgen
data_Li9Mn7O16
_symmetry_space_group_name_H-M   P-1
_cell_length_a   5.35063468
_cell_length_b   6.52143317
_cell_length_c   8.68854621
_cell_angle_alpha   97.32705866
_cell_angle_beta   93.73327377
_cell_angle_gamma   95.01679274
_symmetry_Int_Tables_number   2
_chemical_formula_structural   Li9Mn7O16
_chemical_formula_sum   'Li9 Mn7 O16'
_cell_volume   298.65517351
_cell_formula_units_Z   1
loop_
 _symmetry_equiv_pos_site_id
 _symmetry_equiv_pos_as_xyz
  1  'x, y, z'
  2  '-x, -y, -z'
loop_
 _atom_site_type_symbol
 _atom_site_label
 _atom_site_symmetry_multiplicity
 _atom_site_fract_x
 _atom_site_fract_y
 _atom_site_fract_z
 _atom_site_occupancy
  Li  Li1  2  0.242627  0.060134  0.934158  1
  Li  Li2  2  0.246520  0.308912  0.688384  1
  Li  Li3  2  0.249785  0.560416  0.434642  1
  Li  Li4  2  0.254652  0.799710  0.180821  1
  Li  Li5  1  0.500000  0.500000  0.000000  1
  Mn  Mn6  2  0.000038  0.623593  0.876171  1
  Mn  Mn7  2  0.000559  0.125858  0.374554  1
  Mn  Mn8  2  0.499706  0.252217  0.246403  1
  Mn  Mn9  1  0.500000  0.000000  0.500000  1
  O  O10  2  0.102943  0.355307  0.913226  1
  O  O11  2  0.103634  0.853872  0.412404  1
  O  O12  2  0.108146  0.106916  0.160879  1
  O  O13  2  0.109309  0.602261  0.664227  1
  O  O14  2  0.340391  0.500713  0.208574  1
  O  O15  2  0.340881  0.762880  0.949039  1
  O  O16  2  0.395324  0.271138  0.463661  1
  O  O17  2  0.396303  0.025303  0.715374  1
