# generated using pymatgen
data_Li9Mn7O16
_symmetry_space_group_name_H-M   P-1
_cell_length_a   6.47606057
_cell_length_b   6.53306574
_cell_length_c   8.05343342
_cell_angle_alpha   87.42641488
_cell_angle_beta   67.15210277
_cell_angle_gamma   72.30096862
_symmetry_Int_Tables_number   2
_chemical_formula_structural   Li9Mn7O16
_chemical_formula_sum   'Li9 Mn7 O16'
_cell_volume   298.09252521
_cell_formula_units_Z   1
loop_
 _symmetry_equiv_pos_site_id
 _symmetry_equiv_pos_as_xyz
  1  'x, y, z'
  2  '-x, -y, -z'
loop_
 _atom_site_type_symbol
 _atom_site_label
 _atom_site_symmetry_multiplicity
 _atom_site_fract_x
 _atom_site_fract_y
 _atom_site_fract_z
 _atom_site_occupancy
  Li  Li1  2  0.112692  0.073582  0.832866  1
  Li  Li2  2  0.119604  0.567144  0.313447  1
  Li  Li3  2  0.357965  0.684884  0.943313  1
  Li  Li4  2  0.375323  0.188431  0.438322  1
  Li  Li5  1  0.000000  0.500000  0.000000  1
  Mn  Mn6  2  0.245736  0.624351  0.631336  1
  Mn  Mn7  2  0.246627  0.124974  0.122609  1
  Mn  Mn8  2  0.494570  0.252760  0.756815  1
  Mn  Mn9  1  0.000000  0.000000  0.500000  1
  O  O10  2  0.043517  0.277369  0.415470  1
  O  O11  2  0.049118  0.789079  0.898998  1
  O  O12  2  0.205785  0.843855  0.212969  1
  O  O13  2  0.209248  0.344046  0.710064  1
  O  O14  2  0.318461  0.880957  0.504226  1
  O  O15  2  0.332008  0.372852  0.004834  1
  O  O16  2  0.460523  0.475170  0.330509  1
  O  O17  2  0.460624  0.976017  0.829184  1
