# generated using pymatgen
data_LiCo6O7
_symmetry_space_group_name_H-M   R-3
_cell_length_a   7.93334725
_cell_length_b   7.93334725
_cell_length_c   7.41819520
_cell_angle_alpha   90.00000000
_cell_angle_beta   90.00000000
_cell_angle_gamma   120.00000000
_symmetry_Int_Tables_number   148
_chemical_formula_structural   LiCo6O7
_chemical_formula_sum   'Li3 Co18 O21'
_cell_volume   404.33544830
_cell_formula_units_Z   3
loop_
 _symmetry_equiv_pos_site_id
 _symmetry_equiv_pos_as_xyz
  1  'x, y, z'
  2  '-x, -y, -z'
  3  '-y+1/3, x-y+2/3, z+2/3'
  4  'y, -x+y, -z'
  5  '-x+y+1/3, -x+2/3, z+2/3'
  6  'x-y, x, -z'
  7  'x+2/3, y+1/3, z+1/3'
  8  '-x+2/3, -y+1/3, -z+1/3'
  9  '-y, x-y, z'
  10  'y+2/3, -x+y+1/3, -z+1/3'
  11  '-x+y, -x, z'
  12  'x-y+2/3, x+1/3, -z+1/3'
  13  'x+1/3, y+2/3, z+2/3'
  14  '-x+1/3, -y+2/3, -z+2/3'
  15  '-y+2/3, x-y+1/3, z+1/3'
  16  'y+1/3, -x+y+2/3, -z+2/3'
  17  '-x+y+2/3, -x+1/3, z+1/3'
  18  'x-y+1/3, x+2/3, -z+2/3'
loop_
 _atom_site_type_symbol
 _atom_site_label
 _atom_site_symmetry_multiplicity
 _atom_site_fract_x
 _atom_site_fract_y
 _atom_site_fract_z
 _atom_site_occupancy
  Li  Li1  3  0.000000  0.000000  0.000000  1
  Co  Co2  18  0.048393  0.239365  0.669003  1
  O  O3  18  0.048677  0.243237  0.172113  1
  O  O4  3  0.000000  0.000000  0.500000  1
