# generated using pymatgen
data_LiMn2O4
_symmetry_space_group_name_H-M   Fddd
_cell_length_a   8.38554304
_cell_length_b   25.29447124
_cell_length_c   25.35406678
_cell_angle_alpha   90.00000000
_cell_angle_beta   90.00000000
_cell_angle_gamma   90.00000000
_symmetry_Int_Tables_number   70
_chemical_formula_structural   LiMn2O4
_chemical_formula_sum   'Li72 Mn144 O288'
_cell_volume   5377.79728454
_cell_formula_units_Z   72
loop_
 _symmetry_equiv_pos_site_id
 _symmetry_equiv_pos_as_xyz
  1  'x, y, z'
  2  '-x+1/2, -y+1/2, z'
  3  'x, -y+1/2, -z+1/2'
  4  '-x+1/2, y, -z+1/2'
  5  '-x+1/4, -y+3/4, -z+3/4'
  6  'x+1/4, y+3/4, -z+3/4'
  7  '-x+1/4, y+3/4, z+3/4'
  8  'x+1/4, -y+3/4, z+3/4'
  9  'x+1/2, y, z+1/2'
  10  '-x, -y+1/2, z+1/2'
  11  'x+1/2, -y+1/2, -z'
  12  '-x, y, -z'
  13  '-x+3/4, -y+3/4, -z+1/4'
  14  'x+3/4, y+3/4, -z+1/4'
  15  '-x+3/4, y+3/4, z+1/4'
  16  'x+3/4, -y+3/4, z+1/4'
  17  'x+1/2, y+1/2, z'
  18  '-x, -y, z'
  19  'x+1/2, -y, -z+1/2'
  20  '-x, y+1/2, -z+1/2'
  21  '-x+3/4, -y+1/4, -z+3/4'
  22  'x+3/4, y+1/4, -z+3/4'
  23  '-x+3/4, y+1/4, z+3/4'
  24  'x+3/4, -y+1/4, z+3/4'
  25  'x, y+1/2, z+1/2'
  26  '-x+1/2, -y, z+1/2'
  27  'x, -y, -z'
  28  '-x+1/2, y+1/2, -z'
  29  '-x+1/4, -y+1/4, -z+1/4'
  30  'x+1/4, y+1/4, -z+1/4'
  31  '-x+1/4, y+1/4, z+1/4'
  32  'x+1/4, -y+1/4, z+1/4'
loop_
 _atom_site_type_symbol
 _atom_site_label
 _atom_site_symmetry_multiplicity
 _atom_site_fract_x
 _atom_site_fract_y
 _atom_site_fract_z
 _atom_site_occupancy
  Li  Li1  32  0.005834  0.166994  0.670394  1
  Li  Li2  16  0.000000  0.000000  0.163607  1
  Li  Li3  16  0.000000  0.169288  0.000000  1
  Li  Li4  8  0.000000  0.000000  0.500000  1
  Mn  Mn5  32  0.119323  0.041931  0.379745  1
  Mn  Mn6  32  0.120333  0.127400  0.457057  1
  Mn  Mn7  32  0.124512  0.043801  0.040222  1
  Mn  Mn8  32  0.124968  0.208552  0.544529  1
  Mn  Mn9  16  0.125000  0.125000  0.125000  1
  O  O10  32  0.100170  0.122195  0.201984  1
  O  O11  32  0.103881  0.203288  0.132002  1
  O  O12  32  0.105857  0.203237  0.456990  1
  O  O13  32  0.109082  0.040958  0.963687  1
  O  O14  32  0.109300  0.034277  0.619626  1
  O  O15  32  0.109556  0.037958  0.302022  1
  O  O16  32  0.112096  0.118531  0.381449  1
  O  O17  32  0.113027  0.130049  0.534407  1
  O  O18  32  0.113635  0.200730  0.793677  1
