# generated using pymatgen
data_LiMn16O32
_symmetry_space_group_name_H-M   Pm
_cell_length_a   9.90756994
_cell_length_b   5.87965221
_cell_length_c   9.95857825
_cell_angle_alpha   90.00000000
_cell_angle_beta   90.22116003
_cell_angle_gamma   90.00000000
_symmetry_Int_Tables_number   6
_chemical_formula_structural   LiMn16O32
_chemical_formula_sum   'Li1 Mn16 O32'
_cell_volume   580.11338929
_cell_formula_units_Z   1
loop_
 _symmetry_equiv_pos_site_id
 _symmetry_equiv_pos_as_xyz
  1  'x, y, z'
  2  'x, -y, z'
loop_
 _atom_site_type_symbol
 _atom_site_label
 _atom_site_symmetry_multiplicity
 _atom_site_fract_x
 _atom_site_fract_y
 _atom_site_fract_z
 _atom_site_occupancy
  Li  Li1  1  0.510878  0.000000  0.421577  1
  Mn  Mn2  2  0.166237  0.250311  0.648685  1
  Mn  Mn3  2  0.349482  0.250933  0.162988  1
  Mn  Mn4  2  0.651473  0.250617  0.831093  1
  Mn  Mn5  2  0.832549  0.250689  0.348110  1
  Mn  Mn6  1  0.151383  0.000000  0.333100  1
  Mn  Mn7  1  0.152624  0.500000  0.332180  1
  Mn  Mn8  1  0.333309  0.500000  0.846286  1
  Mn  Mn9  1  0.333388  0.000000  0.847020  1
  Mn  Mn10  1  0.667877  0.500000  0.148878  1
  Mn  Mn11  1  0.668475  0.000000  0.146089  1
  Mn  Mn12  1  0.848034  0.500000  0.664492  1
  Mn  Mn13  1  0.848494  0.000000  0.664545  1
  O  O14  2  0.157622  0.248892  0.203605  1
  O  O15  2  0.169850  0.249997  0.456225  1
  O  O16  2  0.204296  0.249669  0.840980  1
  O  O17  2  0.457016  0.249909  0.831987  1
  O  O18  2  0.543860  0.249199  0.162381  1
  O  O19  2  0.796832  0.249746  0.154910  1
  O  O20  2  0.830369  0.250117  0.541733  1
  O  O21  2  0.843957  0.249904  0.792994  1
  O  O22  1  0.042481  0.500000  0.661264  1
  O  O23  1  0.042624  0.000000  0.661045  1
  O  O24  1  0.295715  0.500000  0.653632  1
  O  O25  1  0.297036  0.000000  0.652941  1
  O  O26  1  0.334861  0.500000  0.039743  1
  O  O27  1  0.335048  0.000000  0.040062  1
  O  O28  1  0.349263  0.500000  0.291291  1
  O  O29  1  0.352277  0.000000  0.295351  1
  O  O30  1  0.654334  0.000000  0.700553  1
  O  O31  1  0.654823  0.500000  0.702111  1
  O  O32  1  0.665132  0.500000  0.954241  1
  O  O33  1  0.665679  0.000000  0.953768  1
  O  O34  1  0.696150  0.000000  0.342115  1
  O  O35  1  0.701423  0.500000  0.340867  1
  O  O36  1  0.957463  0.000000  0.337981  1
  O  O37  1  0.958193  0.500000  0.337798  1
