# generated using pymatgen
data_LiMn3O6
_symmetry_space_group_name_H-M   P1
_cell_length_a   5.92704005
_cell_length_b   5.95297608
_cell_length_c   13.13828551
_cell_angle_alpha   102.94548700
_cell_angle_beta   102.14407886
_cell_angle_gamma   91.65174044
_symmetry_Int_Tables_number   1
_chemical_formula_structural   LiMn3O6
_chemical_formula_sum   'Li4 Mn12 O24'
_cell_volume   440.26717530
_cell_formula_units_Z   4
loop_
 _symmetry_equiv_pos_site_id
 _symmetry_equiv_pos_as_xyz
  1  'x, y, z'
loop_
 _atom_site_type_symbol
 _atom_site_label
 _atom_site_symmetry_multiplicity
 _atom_site_fract_x
 _atom_site_fract_y
 _atom_site_fract_z
 _atom_site_occupancy
  Li  Li1  1  0.374906  0.631060  0.751015  1
  Li  Li2  1  0.614664  0.375382  0.245558  1
  Li  Li3  1  0.714864  0.952572  0.419593  1
  Li  Li4  1  0.969090  0.706935  0.918994  1
  Mn  Mn5  1  0.161564  0.664639  0.330644  1
  Mn  Mn6  1  0.161883  0.168023  0.328605  1
  Mn  Mn7  1  0.168499  0.174737  0.834319  1
  Mn  Mn8  1  0.337291  0.823659  0.167847  1
  Mn  Mn9  1  0.493819  0.004763  0.000342  1
  Mn  Mn10  1  0.493989  0.499671  0.996776  1
  Mn  Mn11  1  0.494362  0.505695  0.501766  1
  Mn  Mn12  1  0.666416  0.169064  0.834122  1
  Mn  Mn13  1  0.838032  0.823872  0.163516  1
  Mn  Mn14  1  0.843772  0.333831  0.668079  1
  Mn  Mn15  1  0.845178  0.835606  0.671755  1
  Mn  Mn16  1  0.995638  0.507026  0.497271  1
  O  O17  1  0.056794  0.582938  0.655192  1
  O  O18  1  0.060850  0.092093  0.676407  1
  O  O19  1  0.083599  0.615324  0.175224  1
  O  O20  1  0.097122  0.036731  0.171390  1
  O  O21  1  0.230996  0.290660  0.486868  1
  O  O22  1  0.236390  0.718421  0.484969  1
  O  O23  1  0.254501  0.271765  0.985707  1
  O  O24  1  0.287595  0.753469  0.011185  1
  O  O25  1  0.368084  0.421814  0.326708  1
  O  O26  1  0.396489  0.884013  0.320328  1
  O  O27  1  0.400592  0.953530  0.840308  1
  O  O28  1  0.408753  0.410108  0.843162  1
  O  O29  1  0.575818  0.601209  0.154504  1
  O  O30  1  0.589318  0.039435  0.161749  1
  O  O31  1  0.633781  0.581964  0.673347  1
  O  O32  1  0.636113  0.084601  0.679010  1
  O  O33  1  0.697649  0.252050  0.988125  1
  O  O34  1  0.740660  0.736545  0.010588  1
  O  O35  1  0.757153  0.730061  0.514556  1
  O  O36  1  0.757249  0.285358  0.511054  1
  O  O37  1  0.924158  0.448594  0.344282  1
  O  O38  1  0.929081  0.391183  0.822184  1
  O  O39  1  0.931577  0.935770  0.825269  1
  O  O40  1  0.941196  0.907594  0.321813  1
