# generated using pymatgen
data_LiMnO2
_symmetry_space_group_name_H-M   P1
_cell_length_a   5.94467922
_cell_length_b   5.99345983
_cell_length_c   14.60724669
_cell_angle_alpha   88.88480625
_cell_angle_beta   89.90918553
_cell_angle_gamma   60.43557212
_symmetry_Int_Tables_number   1
_chemical_formula_structural   LiMnO2
_chemical_formula_sum   'Li12 Mn12 O24'
_cell_volume   452.57835006
_cell_formula_units_Z   12
loop_
 _symmetry_equiv_pos_site_id
 _symmetry_equiv_pos_as_xyz
  1  'x, y, z'
loop_
 _atom_site_type_symbol
 _atom_site_label
 _atom_site_symmetry_multiplicity
 _atom_site_fract_x
 _atom_site_fract_y
 _atom_site_fract_z
 _atom_site_occupancy
  Li  Li1  1  0.022806  0.484168  0.499123  1
  Li  Li2  1  0.165395  0.665762  0.666239  1
  Li  Li3  1  0.166706  0.671741  0.168316  1
  Li  Li4  1  0.168449  0.179586  0.169091  1
  Li  Li5  1  0.309298  0.832372  0.827842  1
  Li  Li6  1  0.492128  0.007824  0.001698  1
  Li  Li7  1  0.507514  0.994175  0.499231  1
  Li  Li8  1  0.524266  0.483419  0.491154  1
  Li  Li9  1  0.671797  0.180616  0.175385  1
  Li  Li10  1  0.800763  0.850998  0.841133  1
  Li  Li11  1  0.823691  0.339421  0.833877  1
  Li  Li12  1  0.839406  0.332017  0.333664  1
  Mn  Mn13  1  0.009213  0.989943  0.499620  1
  Mn  Mn14  1  0.165526  0.166783  0.667242  1
  Mn  Mn15  1  0.323928  0.338646  0.833555  1
  Mn  Mn16  1  0.336485  0.832486  0.333393  1
  Mn  Mn17  1  0.336547  0.331958  0.333521  1
  Mn  Mn18  1  0.494802  0.505933  0.000212  1
  Mn  Mn19  1  0.663116  0.677372  0.168247  1
  Mn  Mn20  1  0.665837  0.167552  0.667385  1
  Mn  Mn21  1  0.666223  0.667542  0.666608  1
  Mn  Mn22  1  0.837352  0.831700  0.334426  1
  Mn  Mn23  1  0.993881  0.506955  0.000372  1
  Mn  Mn24  1  0.995633  0.006015  0.001328  1
  O  O25  1  0.013526  0.977968  0.261576  1
  O  O26  1  0.017598  0.469654  0.745355  1
  O  O27  1  0.127514  0.679563  0.918283  1
  O  O28  1  0.146941  0.203020  0.922656  1
  O  O29  1  0.178731  0.142254  0.414447  1
  O  O30  1  0.188076  0.636859  0.421053  1
  O  O31  1  0.312595  0.364520  0.070611  1
  O  O32  1  0.312630  0.864517  0.589657  1
  O  O33  1  0.344397  0.308013  0.596653  1
  O  O34  1  0.353442  0.809203  0.080181  1
  O  O35  1  0.470073  0.995879  0.749457  1
  O  O36  1  0.489769  0.027312  0.246207  1
  O  O37  1  0.497921  0.519140  0.251853  1
  O  O38  1  0.501385  0.477898  0.747548  1
  O  O39  1  0.636903  0.198913  0.919122  1
  O  O40  1  0.657591  0.686810  0.405959  1
  O  O41  1  0.674460  0.650109  0.928009  1
  O  O42  1  0.692966  0.140170  0.416477  1
  O  O43  1  0.827031  0.860584  0.588675  1
  O  O44  1  0.840534  0.810429  0.077702  1
  O  O45  1  0.859149  0.335633  0.081257  1
  O  O46  1  0.861581  0.336900  0.586601  1
  O  O47  1  0.980452  0.527780  0.252157  1
  O  O48  1  0.987187  0.024667  0.740038  1
