# generated using pymatgen
data_LiMn4O8
_symmetry_space_group_name_H-M   Cmc2_1
_cell_length_a   5.91358215
_cell_length_b   9.76205570
_cell_length_c   9.48908306
_cell_angle_alpha   90.00000000
_cell_angle_beta   90.00000000
_cell_angle_gamma   90.00000000
_symmetry_Int_Tables_number   36
_chemical_formula_structural   LiMn4O8
_chemical_formula_sum   'Li4 Mn16 O32'
_cell_volume   547.79260340
_cell_formula_units_Z   4
loop_
 _symmetry_equiv_pos_site_id
 _symmetry_equiv_pos_as_xyz
  1  'x, y, z'
  2  '-x, -y, z+1/2'
  3  '-x, y, z'
  4  'x, -y, z+1/2'
  5  'x+1/2, y+1/2, z'
  6  '-x+1/2, -y+1/2, z+1/2'
  7  '-x+1/2, y+1/2, z'
  8  'x+1/2, -y+1/2, z+1/2'
loop_
 _atom_site_type_symbol
 _atom_site_label
 _atom_site_symmetry_multiplicity
 _atom_site_fract_x
 _atom_site_fract_y
 _atom_site_fract_z
 _atom_site_occupancy
  Li  Li1  4  0.000000  0.126605  0.075019  1
  Mn  Mn2  8  0.244938  0.379892  0.863549  1
  Mn  Mn3  4  0.000000  0.145072  0.639804  1
  Mn  Mn4  4  0.000000  0.382445  0.138888  1
  O  O5  8  0.228705  0.273297  0.038537  1
  O  O6  8  0.249030  0.482707  0.216776  1
  O  O7  4  0.000000  0.033849  0.463108  1
  O  O8  4  0.000000  0.220841  0.276746  1
  O  O9  4  0.000000  0.277970  0.788028  1
  O  O10  4  0.000000  0.478840  0.959822  1
