# generated using pymatgen
data_LiMn8O16
_symmetry_space_group_name_H-M   Pmmn
_cell_length_a   5.91740453
_cell_length_b   11.70526674
_cell_length_c   8.29519451
_cell_angle_alpha   90.00000000
_cell_angle_beta   90.00000000
_cell_angle_gamma   90.00000000
_symmetry_Int_Tables_number   59
_chemical_formula_structural   LiMn8O16
_chemical_formula_sum   'Li2 Mn16 O32'
_cell_volume   574.56497543
_cell_formula_units_Z   2
loop_
 _symmetry_equiv_pos_site_id
 _symmetry_equiv_pos_as_xyz
  1  'x, y, z'
  2  '-x, -y, z'
  3  'x+1/2, -y+1/2, -z'
  4  '-x+1/2, y+1/2, -z'
  5  '-x+1/2, -y+1/2, -z'
  6  'x+1/2, y+1/2, -z'
  7  '-x, y, z'
  8  'x, -y, z'
loop_
 _atom_site_type_symbol
 _atom_site_label
 _atom_site_symmetry_multiplicity
 _atom_site_fract_x
 _atom_site_fract_y
 _atom_site_fract_z
 _atom_site_occupancy
  Li  Li1  2  0.000000  0.500000  0.624385  1
  Mn  Mn2  4  0.000000  0.127098  0.249921  1
  Mn  Mn3  4  0.000000  0.375543  0.247571  1
  Mn  Mn4  4  0.249803  0.000000  0.999868  1
  Mn  Mn5  4  0.250000  0.250000  0.500000  1
  O  O6  8  0.215379  0.250179  0.261656  1
  O  O7  4  0.000000  0.108904  0.016219  1
  O  O8  4  0.000000  0.141799  0.482996  1
  O  O9  4  0.000000  0.367342  0.481022  1
  O  O10  4  0.000000  0.390789  0.013538  1
  O  O11  4  0.218168  0.500000  0.232944  1
  O  O12  4  0.221212  0.000000  0.237643  1
