# generated using pymatgen
data_LiMnO2
_symmetry_space_group_name_H-M   Cm
_cell_length_a   47.24299921
_cell_length_b   5.76149295
_cell_length_c   5.76152769
_cell_angle_alpha   90.00000000
_cell_angle_beta   97.01431714
_cell_angle_gamma   90.00000000
_symmetry_Int_Tables_number   8
_chemical_formula_structural   LiMnO2
_chemical_formula_sum   'Li40 Mn40 O80'
_cell_volume   1556.49424971
_cell_formula_units_Z   40
loop_
 _symmetry_equiv_pos_site_id
 _symmetry_equiv_pos_as_xyz
  1  'x, y, z'
  2  'x, -y, z'
  3  'x+1/2, y+1/2, z'
  4  'x+1/2, -y+1/2, z'
loop_
 _atom_site_type_symbol
 _atom_site_label
 _atom_site_symmetry_multiplicity
 _atom_site_fract_x
 _atom_site_fract_y
 _atom_site_fract_z
 _atom_site_occupancy
  Li  Li1  4  0.051735  0.250848  0.788777  1
  Li  Li2  4  0.150607  0.252023  0.391645  1
  Li  Li3  4  0.249901  0.244234  0.989356  1
  Li  Li4  4  0.350443  0.255386  0.584848  1
  Li  Li5  4  0.450711  0.247389  0.184198  1
  Li  Li6  2  0.000328  0.000000  0.479007  1
  Li  Li7  2  0.003164  0.000000  0.986778  1
  Li  Li8  2  0.101029  0.500000  0.088053  1
  Li  Li9  2  0.101239  0.500000  0.593385  1
  Li  Li10  2  0.200095  0.000000  0.687380  1
  Li  Li11  2  0.200238  0.000000  0.195456  1
  Li  Li12  2  0.299350  0.500000  0.279509  1
  Li  Li13  2  0.301884  0.500000  0.789001  1
  Li  Li14  2  0.399877  0.000000  0.878272  1
  Li  Li15  2  0.400783  0.000000  0.387212  1
  Mn  Mn16  4  0.052637  0.247727  0.290613  1
  Mn  Mn17  4  0.152195  0.248870  0.893103  1
  Mn  Mn18  4  0.251949  0.251108  0.491926  1
  Mn  Mn19  4  0.352120  0.248450  0.087579  1
  Mn  Mn20  4  0.452509  0.249131  0.687148  1
  Mn  Mn21  2  0.002573  0.500000  0.988297  1
  Mn  Mn22  2  0.002721  0.500000  0.488321  1
  Mn  Mn23  2  0.102414  0.000000  0.592068  1
  Mn  Mn24  2  0.102490  0.000000  0.092011  1
  Mn  Mn25  2  0.201960  0.500000  0.193200  1
  Mn  Mn26  2  0.202046  0.500000  0.692576  1
  Mn  Mn27  2  0.301914  0.000000  0.789462  1
  Mn  Mn28  2  0.302019  0.000000  0.288996  1
  Mn  Mn29  2  0.402229  0.500000  0.386364  1
  Mn  Mn30  2  0.402376  0.500000  0.885914  1
  O  O31  4  0.003075  0.266874  0.738541  1
  O  O32  4  0.003426  0.266945  0.238998  1
  O  O33  4  0.102826  0.233371  0.842604  1
  O  O34  4  0.103047  0.233331  0.342511  1
  O  O35  4  0.202393  0.268642  0.443228  1
  O  O36  4  0.202429  0.268690  0.943427  1
  O  O37  4  0.302379  0.229298  0.539535  1
  O  O38  4  0.302651  0.229161  0.039887  1
  O  O39  4  0.402577  0.269325  0.136270  1
  O  O40  4  0.402798  0.269161  0.636580  1
  O  O41  2  0.052879  0.000000  0.059251  1
  O  O42  2  0.053253  0.500000  0.522455  1
  O  O43  2  0.053284  0.500000  0.059857  1
  O  O44  2  0.053435  0.000000  0.522367  1
  O  O45  2  0.152513  0.500000  0.662268  1
  O  O46  2  0.152580  0.500000  0.124751  1
  O  O47  2  0.152692  0.000000  0.124821  1
  O  O48  2  0.152746  0.000000  0.662470  1
  O  O49  2  0.252044  0.500000  0.722937  1
  O  O50  2  0.252351  0.500000  0.260735  1
  O  O51  2  0.252452  0.000000  0.261060  1
  O  O52  2  0.252495  0.000000  0.723658  1
  O  O53  2  0.352239  0.500000  0.856095  1
  O  O54  2  0.352527  0.000000  0.856498  1
  O  O55  2  0.352541  0.000000  0.319290  1
  O  O56  2  0.352940  0.500000  0.319398  1
  O  O57  2  0.452400  0.500000  0.917900  1
  O  O58  2  0.452951  0.500000  0.455872  1
  O  O59  2  0.453162  0.000000  0.456362  1
  O  O60  2  0.453319  0.000000  0.919181  1
