# generated using pymatgen
data_LiMn4O8
_symmetry_space_group_name_H-M   P2_1/c
_cell_length_a   9.61648640
_cell_length_b   5.91744193
_cell_length_c   13.90729534
_cell_angle_alpha   90.00000000
_cell_angle_beta   132.15690341
_cell_angle_gamma   90.00000000
_symmetry_Int_Tables_number   14
_chemical_formula_structural   LiMn4O8
_chemical_formula_sum   'Li4 Mn16 O32'
_cell_volume   586.66847496
_cell_formula_units_Z   4
loop_
 _symmetry_equiv_pos_site_id
 _symmetry_equiv_pos_as_xyz
  1  'x, y, z'
  2  '-x, -y, -z'
  3  '-x, y+1/2, -z+1/2'
  4  'x, -y+1/2, z+1/2'
loop_
 _atom_site_type_symbol
 _atom_site_label
 _atom_site_symmetry_multiplicity
 _atom_site_fract_x
 _atom_site_fract_y
 _atom_site_fract_z
 _atom_site_occupancy
  Li  Li1  4  0.169513  0.131007  0.394117  1
  Mn  Mn2  4  0.182178  0.124855  0.594301  1
  Mn  Mn3  4  0.184146  0.625652  0.588666  1
  Mn  Mn4  4  0.464448  0.626516  0.392529  1
  Mn  Mn5  4  0.478993  0.123861  0.397553  1
  O  O6  4  0.070687  0.617769  0.963312  1
  O  O7  4  0.070756  0.131582  0.965981  1
  O  O8  4  0.263459  0.627399  0.207656  1
  O  O9  4  0.269778  0.122482  0.209593  1
  O  O10  4  0.348038  0.605966  0.912996  1
  O  O11  4  0.358478  0.141266  0.917605  1
  O  O12  4  0.390194  0.123295  0.601489  1
  O  O13  4  0.398641  0.627754  0.607028  1
