# generated using pymatgen
data_LiMn6O12
_symmetry_space_group_name_H-M   P1
_cell_length_a   6.61292934
_cell_length_b   6.61587346
_cell_length_c   15.39555947
_cell_angle_alpha   82.71883339
_cell_angle_beta   82.88140877
_cell_angle_gamma   82.65528558
_symmetry_Int_Tables_number   1
_chemical_formula_structural   LiMn6O12
_chemical_formula_sum   'Li3 Mn18 O36'
_cell_volume   658.66260205
_cell_formula_units_Z   3
loop_
 _symmetry_equiv_pos_site_id
 _symmetry_equiv_pos_as_xyz
  1  'x, y, z'
loop_
 _atom_site_type_symbol
 _atom_site_label
 _atom_site_symmetry_multiplicity
 _atom_site_fract_x
 _atom_site_fract_y
 _atom_site_fract_z
 _atom_site_occupancy
  Li  Li1  1  0.246971  0.252374  0.086170  1
  Li  Li2  1  0.247348  0.249974  0.749642  1
  Li  Li3  1  0.591124  0.913479  0.411115  1
  Mn  Mn4  1  0.011842  0.012468  0.333115  1
  Mn  Mn5  1  0.156152  0.824135  0.502870  1
  Mn  Mn6  1  0.160723  0.825759  0.834300  1
  Mn  Mn7  1  0.162170  0.830187  0.164925  1
  Mn  Mn8  1  0.330356  0.664214  0.332017  1
  Mn  Mn9  1  0.337458  0.671322  0.667971  1
  Mn  Mn10  1  0.340667  0.674957  0.998357  1
  Mn  Mn11  1  0.488909  0.488440  0.501439  1
  Mn  Mn12  1  0.505751  0.505986  0.833503  1
  Mn  Mn13  1  0.508291  0.505313  0.165289  1
  Mn  Mn14  1  0.669807  0.338032  0.668253  1
  Mn  Mn15  1  0.674057  0.341470  0.333281  1
  Mn  Mn16  1  0.678968  0.341162  0.997105  1
  Mn  Mn17  1  0.821810  0.154177  0.166946  1
  Mn  Mn18  1  0.825954  0.160773  0.834085  1
  Mn  Mn19  1  0.834529  0.168402  0.502338  1
  Mn  Mn20  1  0.992425  0.992229  0.668237  1
  Mn  Mn21  1  0.997268  0.998773  0.998043  1
  O  O22  1  0.067885  0.728195  0.626274  1
  O  O23  1  0.069426  0.741991  0.284687  1
  O  O24  1  0.072370  0.731591  0.954581  1
  O  O25  1  0.096547  0.091433  0.549855  1
  O  O26  1  0.096975  0.095863  0.873101  1
  O  O27  1  0.105853  0.101055  0.195386  1
  O  O28  1  0.226369  0.565216  0.452603  1
  O  O29  1  0.239391  0.562627  0.788841  1
  O  O30  1  0.243691  0.562713  0.116769  1
  O  O31  1  0.257928  0.937280  0.714606  1
  O  O32  1  0.263167  0.937953  0.042723  1
  O  O33  1  0.272992  0.924319  0.384397  1
  O  O34  1  0.393708  0.395272  0.639905  1
  O  O35  1  0.406662  0.402594  0.285016  1
  O  O36  1  0.407284  0.407215  0.955852  1
  O  O37  1  0.424976  0.759551  0.546234  1
  O  O38  1  0.428908  0.766904  0.209782  1
  O  O39  1  0.430676  0.769936  0.876459  1
  O  O40  1  0.561141  0.244469  0.114586  1
  O  O41  1  0.562154  0.239495  0.789797  1
  O  O42  1  0.573456  0.227290  0.452726  1
  O  O43  1  0.597018  0.613029  0.369985  1
  O  O44  1  0.603283  0.604859  0.713608  1
  O  O45  1  0.606626  0.606248  0.042392  1
  O  O46  1  0.730670  0.071170  0.625124  1
  O  O47  1  0.732122  0.071063  0.954125  1
  O  O48  1  0.733415  0.067396  0.302294  1
  O  O49  1  0.756514  0.430684  0.549246  1
  O  O50  1  0.766788  0.426978  0.210889  1
  O  O51  1  0.770542  0.431661  0.875062  1
  O  O52  1  0.888643  0.899595  0.466721  1
  O  O53  1  0.894539  0.894890  0.790399  1
  O  O54  1  0.899594  0.894492  0.115258  1
  O  O55  1  0.934760  0.274573  0.384117  1
  O  O56  1  0.937255  0.257934  0.714635  1
  O  O57  1  0.946663  0.267403  0.032206  1
